ligand
 OpenBabel11021811513D
libRbt.so/2013.1/901 2013/11/27
 49 52  0  0  0  0  0  0  0  0999 V2000
   25.7992   11.2571    0.4446 C   0  0  2  0  0  0  0  0  0  0  0  0
   27.0575   10.7697    0.0825 O   0  0  0  0  0  0  0  0  0  0  0  0
   24.7412   10.0935    0.3831 C   0  0  2  0  0  0  0  0  0  0  0  0
   25.1696    8.9800    1.3260 N   0  0  0  0  0  0  0  0  0  0  0  0
   33.5583    8.9787    0.9817 O   0  0  0  0  0  0  0  0  0  0  0  0
   24.5909    9.5782   -1.0673 C   0  0  2  0  0  0  0  0  0  0  0  0
   38.5524   10.1695    0.4119 N   0  0  0  0  0  0  0  0  0  0  0  0
   24.1773   10.7243   -2.0037 C   0  0  2  0  0  0  0  0  0  0  0  0
   25.2213   11.9195   -1.9672 C   0  0  2  0  0  0  0  0  0  0  0  0
   25.3770   12.3593   -0.5102 O   0  0  0  0  0  0  0  0  0  0  0  0
   24.7677   13.0993   -2.8749 C   0  0  0  0  0  0  0  0  0  0  0  0
   25.7622   14.0942   -3.0617 N   0  0  0  0  0  0  0  0  0  0  0  0
   31.2415   10.7251    1.2204 C   0  0  2  0  0  0  0  0  0  0  0  0
   32.6449   11.1980    1.4041 N   0  0  0  0  0  0  0  0  0  0  0  0
   30.8085   11.1101   -0.2765 C   0  0  0  0  0  0  0  0  0  0  0  0
   29.3397   10.6228   -0.5654 C   0  0  2  0  0  0  0  0  0  0  0  0
   28.9239   10.9876   -1.9277 N   0  0  0  0  0  0  0  0  0  0  0  0
   28.3566   11.2713    0.4295 C   0  0  2  0  0  0  0  0  0  0  0  0
   28.7581   10.9144    1.9175 C   0  0  2  0  0  0  0  0  0  0  0  0
   27.7596   11.5707    2.7845 O   0  0  0  0  0  0  0  0  0  0  0  0
   30.2398   11.4816    2.2079 C   0  0  1  0  0  0  0  0  0  0  0  0
   30.5712   11.1647    3.5230 O   0  0  0  0  0  0  0  0  0  0  0  0
   27.5932   11.3913    4.0506 C   0  0  1  0  0  0  0  0  0  0  0  0
   26.6922   12.4388    4.7684 C   0  0  2  0  0  0  0  0  0  0  0  0
   27.5095   13.4654    5.2353 O   0  0  0  0  0  0  0  0  0  0  0  0
   26.2035   11.5905    5.8682 C   0  0  1  0  0  0  0  0  0  0  0  0
   25.9364   10.1628    5.2990 C   0  0  2  0  0  0  0  0  0  0  0  0
   27.0318   10.0896    4.4197 O   0  0  0  0  0  0  0  0  0  0  0  0
   24.5488    9.8581    4.7328 C   0  0  0  0  0  0  0  0  0  0  0  0
   24.5601    8.4900    4.3711 O   0  0  0  0  0  0  0  0  0  0  0  0
   26.9775   11.0519    8.1341 C   0  0  2  0  0  0  0  0  0  0  0  0
   27.2702   11.6050    6.9209 O   0  0  0  0  0  0  0  0  0  0  0  0
   28.1439   11.1084    9.0761 C   0  0  1  0  0  0  0  0  0  0  0  0
   24.4417    7.2873    8.2073 N   0  0  0  0  0  0  0  0  0  0  0  0
   35.4165   11.0729    2.8552 O   0  0  0  0  0  0  0  0  0  0  0  0
   27.7530   10.4086   10.4354 C   0  0  2  0  0  0  0  0  0  0  0  0
   27.2780    8.9240   10.2652 C   0  0  1  0  0  0  0  0  0  0  0  0
   26.1504    8.8965    9.3634 C   0  0  1  0  0  0  0  0  0  0  0  0
   26.5005    9.5645    8.0472 O   0  0  0  0  0  0  0  0  0  0  0  0
   25.6614    7.4006    9.1263 C   0  0  0  0  0  0  0  0  0  0  0  0
   29.2415   10.4153    8.5275 N   0  0  0  0  0  0  0  0  0  0  0  0
   23.7895    8.7637   -1.0924 O   0  0  0  0  0  0  0  0  0  0  0  0
   36.0733    9.9714    0.9804 C   0  0  0  0  0  0  0  0  0  0  0  0
   28.1380    8.3201    9.8034 O   0  0  0  0  0  0  0  0  0  0  0  0
   26.8718   10.9873   10.8957 O   0  0  0  0  0  0  0  0  0  0  0  0
   33.7313   10.1754    1.2528 C   0  0  0  0  0  0  0  0  0  0  0  0
   37.2759   10.6253    0.8308 C   0  0  0  0  0  0  0  0  0  0  0  0
   35.1884   10.8406    1.4669 C   0  0  1  0  0  0  0  0  0  0  0  0
   22.9218   11.2275   -1.6192 F   0  0  0  0  0  0  0  0  0  0  0  0
  1  2  1  6  0  0  0
  1 10  1  0  0  0  0
  1  3  1  0  0  0  0
  3  4  1  1  0  0  0
  3  6  1  0  0  0  0
  5 46  2  0  0  0  0
  6 42  1  1  0  0  0
  6  8  1  0  0  0  0
  7 47  1  0  0  0  0
  8  9  1  0  0  0  0
  8 49  1  1  0  0  0
  9 10  1  0  0  0  0
  9 11  1  6  0  0  0
 11 12  1  0  0  0  0
 13 14  1  1  0  0  0
 13 15  1  0  0  0  0
 13 21  1  0  0  0  0
 14 46  1  0  0  0  0
 15 16  1  0  0  0  0
 16 17  1  6  0  0  0
 16 18  1  0  0  0  0
 18  2  1  6  0  0  0
 18 19  1  0  0  0  0
 19 20  1  1  0  0  0
 19 21  1  0  0  0  0
 21 22  1  1  0  0  0
 23 20  1  6  0  0  0
 23 24  1  0  0  0  0
 23 28  1  0  0  0  0
 24 25  1  1  0  0  0
 24 26  1  0  0  0  0
 26 27  1  0  0  0  0
 26 32  1  1  0  0  0
 27 28  1  0  0  0  0
 27 29  1  6  0  0  0
 29 30  1  0  0  0  0
 31 32  1  6  0  0  0
 31 33  1  0  0  0  0
 31 39  1  0  0  0  0
 33 36  1  0  0  0  0
 33 41  1  6  0  0  0
 34 40  1  0  0  0  0
 35 48  1  0  0  0  0
 36 37  1  0  0  0  0
 36 45  1  6  0  0  0
 37 38  1  0  0  0  0
 37 44  1  6  0  0  0
 38 39  1  0  0  0  0
 38 40  1  6  0  0  0
 43 47  1  0  0  0  0
 46 48  1  0  0  0  0
 48 43  1  1  0  0  0
M  END
>  <CHROM.1>
-155.27611510,-163.44550549,-169.83309516,-98.93633452,169.37666513,166.68190952
170.48990826,-176.39729194,178.69623807,178.47904563,176.95459828,-75.56763888
-105.13402257,28.16671612,10.59344930,3.16696031,1.15819317,0.00070367,-1.42640204

>  <Name>
ligand

>  <RI>
0

>  <Rbt.Current_Directory>
/home/itssahil/PROJECTS/Mol_Feturizer/New_Systems/rnas/4PDQ

>  <Rbt.Executable>
rbdock ($Id: //depot/dev/client3/rdock/2013.1/src/exe/rbdock.cxx#4 $)

>  <Rbt.Library>
libRbt.so (2013.1, Build901 2013/11/27)

>  <Rbt.Parameter_File>
/export/apps/rDock/src/rDock_2013.1_src/data/scripts/dock_solv.prm

>  <Rbt.Receptor>
prm/pocket_docking_2.prm

>  <SCORE>
-15.5088

>  <SCORE.INTER>
-3.85445

>  <SCORE.INTER.CONST>
1

>  <SCORE.INTER.POLAR>
0

>  <SCORE.INTER.ROT>
13

>  <SCORE.INTER.SOLV>
23.9404

>  <SCORE.INTER.VDW>
-22.8164

>  <SCORE.INTER.norm>
-0.0786622

>  <SCORE.INTRA>
-11.6543

>  <SCORE.INTRA.DIHEDRAL>
-25.5266

>  <SCORE.INTRA.DIHEDRAL.0>
34.5115

>  <SCORE.INTRA.POLAR>
0

>  <SCORE.INTRA.POLAR.0>
0

>  <SCORE.INTRA.REPUL>
0

>  <SCORE.INTRA.REPUL.0>
0

>  <SCORE.INTRA.SOLV>
-2.30847

>  <SCORE.INTRA.SOLV.lig_0>
-122.812

>  <SCORE.INTRA.VDW>
2.26319

>  <SCORE.INTRA.VDW.0>
-7.46208

>  <SCORE.INTRA.norm>
-0.237844

>  <SCORE.RESTR>
0

>  <SCORE.RESTR.CAVITY>
0

>  <SCORE.RESTR.norm>
0

>  <SCORE.SYSTEM>
0

>  <SCORE.SYSTEM.CONST>
0

>  <SCORE.SYSTEM.DIHEDRAL>
0

>  <SCORE.SYSTEM.SOLV>
0

>  <SCORE.SYSTEM.norm>
0

>  <SCORE.heavy>
49

>  <SCORE.norm>
-0.316506

>  <RMSD>
0.962

$$$$
ligand
 OpenBabel11021811513D
libRbt.so/2013.1/901 2013/11/27
 49 52  0  0  0  0  0  0  0  0999 V2000
   26.3855   11.1268    0.6433 C   0  0  2  0  0  0  0  0  0  0  0  0
   27.5817   10.7994   -0.0001 O   0  0  0  0  0  0  0  0  0  0  0  0
   25.4730    9.8488    0.7499 C   0  0  2  0  0  0  0  0  0  0  0  0
   26.2139    8.7707    1.5252 N   0  0  0  0  0  0  0  0  0  0  0  0
   34.0579    9.8581   -0.8481 O   0  0  0  0  0  0  0  0  0  0  0  0
   25.0709    9.3549   -0.6594 C   0  0  2  0  0  0  0  0  0  0  0  0
   38.9026   10.9832    1.3113 N   0  0  0  0  0  0  0  0  0  0  0  0
   24.3422   10.4670   -1.4300 C   0  0  2  0  0  0  0  0  0  0  0  0
   25.2322   11.7753   -1.5565 C   0  0  2  0  0  0  0  0  0  0  0  0
   25.6493   12.1947   -0.1457 O   0  0  0  0  0  0  0  0  0  0  0  0
   24.4672   12.9154   -2.2890 C   0  0  0  0  0  0  0  0  0  0  0  0
   25.2799   14.0309   -2.6197 N   0  0  0  0  0  0  0  0  0  0  0  0
   31.8644   11.0989    0.6092 C   0  0  2  0  0  0  0  0  0  0  0  0
   33.2452   11.6639    0.5721 N   0  0  0  0  0  0  0  0  0  0  0  0
   31.2331   11.3058   -0.8520 C   0  0  0  0  0  0  0  0  0  0  0  0
   29.7762   10.7123   -0.9093 C   0  0  2  0  0  0  0  0  0  0  0  0
   29.1792   10.9138   -2.2378 N   0  0  0  0  0  0  0  0  0  0  0  0
   28.8765   11.4038    0.1343 C   0  0  2  0  0  0  0  0  0  0  0  0
   29.4737   11.2222    1.5880 C   0  0  2  0  0  0  0  0  0  0  0  0
   28.5431   11.9076    2.5065 O   0  0  0  0  0  0  0  0  0  0  0  0
   30.9383   11.8959    1.6377 C   0  0  1  0  0  0  0  0  0  0  0  0
   31.4430   11.7327    2.9255 O   0  0  0  0  0  0  0  0  0  0  0  0
   28.2919   11.5959    3.7322 C   0  0  1  0  0  0  0  0  0  0  0  0
   27.4483   12.6312    4.5330 C   0  0  2  0  0  0  0  0  0  0  0  0
   28.3259   13.5136    5.1584 O   0  0  0  0  0  0  0  0  0  0  0  0
   26.8267   11.7083    5.4973 C   0  0  1  0  0  0  0  0  0  0  0  0
   26.4668   10.3897    4.7455 C   0  0  2  0  0  0  0  0  0  0  0  0
   27.5984   10.3184    3.9132 O   0  0  0  0  0  0  0  0  0  0  0  0
   25.0911   10.2863    4.0854 C   0  0  0  0  0  0  0  0  0  0  0  0
   24.1419   10.3797    5.1309 O   0  0  0  0  0  0  0  0  0  0  0  0
   27.4809   10.6863    7.6307 C   0  0  2  0  0  0  0  0  0  0  0  0
   27.8307   11.4974    6.5899 O   0  0  0  0  0  0  0  0  0  0  0  0
   28.6230   10.4574    8.5763 C   0  0  1  0  0  0  0  0  0  0  0  0
   24.7348    7.1393    6.8146 N   0  0  0  0  0  0  0  0  0  0  0  0
   35.5261   13.0300    0.1223 O   0  0  0  0  0  0  0  0  0  0  0  0
   28.1645    9.4742    9.7222 C   0  0  2  0  0  0  0  0  0  0  0  0
   27.6273    8.0990    9.1940 C   0  0  1  0  0  0  0  0  0  0  0  0
   26.5241    8.3445    8.2950 C   0  0  1  0  0  0  0  0  0  0  0  0
   26.9393    9.2887    7.1827 O   0  0  0  0  0  0  0  0  0  0  0  0
   25.9741    6.9750    7.6990 C   0  0  0  0  0  0  0  0  0  0  0  0
   29.7023    9.8606    7.8942 N   0  0  0  0  0  0  0  0  0  0  0  0
   24.3770    8.4528   -0.5545 O   0  0  0  0  0  0  0  0  0  0  0  0
   36.4077   11.0432    0.7821 C   0  0  0  0  0  0  0  0  0  0  0  0
   28.4710    7.5800    8.6140 O   0  0  0  0  0  0  0  0  0  0  0  0
   27.2986    9.9701   10.2944 O   0  0  0  0  0  0  0  0  0  0  0  0
   34.2681   10.9055   -0.2199 C   0  0  0  0  0  0  0  0  0  0  0  0
   37.7338   11.3697    0.6062 C   0  0  0  0  0  0  0  0  0  0  0  0
   35.7035   11.6466   -0.1746 C   0  0  1  0  0  0  0  0  0  0  0  0
   23.1517   10.8099   -0.7647 F   0  0  0  0  0  0  0  0  0  0  0  0
  1  2  1  6  0  0  0
  1 10  1  0  0  0  0
  1  3  1  0  0  0  0
  3  4  1  6  0  0  0
  3  6  1  0  0  0  0
  5 46  2  0  0  0  0
  6 42  1  1  0  0  0
  6  8  1  0  0  0  0
  7 47  1  0  0  0  0
  8  9  1  0  0  0  0
  8 49  1  1  0  0  0
  9 10  1  0  0  0  0
  9 11  1  1  0  0  0
 11 12  1  0  0  0  0
 13 14  1  6  0  0  0
 13 15  1  0  0  0  0
 13 21  1  0  0  0  0
 14 46  1  0  0  0  0
 15 16  1  0  0  0  0
 16 17  1  6  0  0  0
 16 18  1  0  0  0  0
 18  2  1  1  0  0  0
 18 19  1  0  0  0  0
 19 20  1  1  0  0  0
 19 21  1  0  0  0  0
 21 22  1  1  0  0  0
 23 20  1  6  0  0  0
 23 24  1  0  0  0  0
 23 28  1  0  0  0  0
 24 25  1  1  0  0  0
 24 26  1  0  0  0  0
 26 27  1  0  0  0  0
 26 32  1  1  0  0  0
 27 28  1  0  0  0  0
 27 29  1  6  0  0  0
 29 30  1  0  0  0  0
 31 32  1  6  0  0  0
 31 33  1  0  0  0  0
 31 39  1  0  0  0  0
 33 36  1  0  0  0  0
 33 41  1  6  0  0  0
 34 40  1  0  0  0  0
 35 48  1  0  0  0  0
 36 37  1  0  0  0  0
 36 45  1  6  0  0  0
 37 38  1  0  0  0  0
 37 44  1  6  0  0  0
 38 39  1  0  0  0  0
 38 40  1  6  0  0  0
 43 47  1  0  0  0  0
 46 48  1  0  0  0  0
 48 43  1  1  0  0  0
M  END
>  <CHROM.1>
-152.13817295,-175.04139258,-170.49581327,-70.84655773,149.26666823,170.22886303
178.96296536,-62.59072388,174.33187863,175.72434071,-178.35025093,-77.39743773
156.05894567,28.60512593,10.68498355,2.77804149,2.35593634,0.07387761,1.77829501

>  <Name>
ligand

>  <RI>
0

>  <Rbt.Current_Directory>
/home/itssahil/PROJECTS/Mol_Feturizer/New_Systems/rnas/4PDQ

>  <Rbt.Executable>
rbdock ($Id: //depot/dev/client3/rdock/2013.1/src/exe/rbdock.cxx#4 $)

>  <Rbt.Library>
libRbt.so (2013.1, Build901 2013/11/27)

>  <Rbt.Parameter_File>
/export/apps/rDock/src/rDock_2013.1_src/data/scripts/dock_solv.prm

>  <Rbt.Receptor>
prm/pocket_docking_3.prm

>  <SCORE>
-15.5647

>  <SCORE.INTER>
-4.49625

>  <SCORE.INTER.CONST>
1

>  <SCORE.INTER.POLAR>
0

>  <SCORE.INTER.ROT>
13

>  <SCORE.INTER.SOLV>
25.1728

>  <SCORE.INTER.VDW>
-23.6551

>  <SCORE.INTER.norm>
-0.0917603

>  <SCORE.INTRA>
-11.0685

>  <SCORE.INTRA.DIHEDRAL>
-23.3292

>  <SCORE.INTRA.DIHEDRAL.0>
34.5115

>  <SCORE.INTRA.POLAR>
0

>  <SCORE.INTRA.POLAR.0>
0

>  <SCORE.INTRA.REPUL>
0

>  <SCORE.INTRA.REPUL.0>
0

>  <SCORE.INTRA.SOLV>
-1.44565

>  <SCORE.INTRA.SOLV.lig_0>
-122.812

>  <SCORE.INTRA.VDW>
1.31897

>  <SCORE.INTRA.VDW.0>
-7.46208

>  <SCORE.INTRA.norm>
-0.225887

>  <SCORE.RESTR>
0

>  <SCORE.RESTR.CAVITY>
0

>  <SCORE.RESTR.norm>
0

>  <SCORE.SYSTEM>
0

>  <SCORE.SYSTEM.CONST>
0

>  <SCORE.SYSTEM.DIHEDRAL>
0

>  <SCORE.SYSTEM.SOLV>
0

>  <SCORE.SYSTEM.norm>
0

>  <SCORE.heavy>
49

>  <SCORE.norm>
-0.317647

>  <RMSD>
1.060

$$$$
ligand
 OpenBabel11021811513D
libRbt.so/2013.1/901 2013/11/27
 49 52  0  0  0  0  0  0  0  0999 V2000
   26.0275   11.4167    0.3610 C   0  0  2  0  0  0  0  0  0  0  0  0
   27.2590   10.8601    0.0066 O   0  0  0  0  0  0  0  0  0  0  0  0
   24.9021   10.3206    0.2648 C   0  0  2  0  0  0  0  0  0  0  0  0
   25.2491    9.1671    1.1929 N   0  0  0  0  0  0  0  0  0  0  0  0
   33.6870    9.0249    1.7002 O   0  0  0  0  0  0  0  0  0  0  0  0
   24.7414    9.8403   -1.1965 C   0  0  2  0  0  0  0  0  0  0  0  0
   35.5537   13.0236   -0.5344 N   0  0  0  0  0  0  0  0  0  0  0  0
   24.4110   11.0254   -2.1175 C   0  0  2  0  0  0  0  0  0  0  0  0
   25.5247   12.1542   -2.0458 C   0  0  2  0  0  0  0  0  0  0  0  0
   25.6862   12.5586   -0.5793 O   0  0  0  0  0  0  0  0  0  0  0  0
   25.1560   13.3748   -2.9380 C   0  0  0  0  0  0  0  0  0  0  0  0
   26.2335   14.2724   -3.1553 N   0  0  0  0  0  0  0  0  0  0  0  0
   31.4986   10.7757    0.9127 C   0  0  2  0  0  0  0  0  0  0  0  0
   32.9168   11.2305    1.0076 N   0  0  0  0  0  0  0  0  0  0  0  0
   30.9888   11.1337   -0.5666 C   0  0  0  0  0  0  0  0  0  0  0  0
   29.4994   10.6630   -0.7626 C   0  0  2  0  0  0  0  0  0  0  0  0
   29.0139   11.0037   -2.1080 N   0  0  0  0  0  0  0  0  0  0  0  0
   28.5824   11.3490    0.2696 C   0  0  2  0  0  0  0  0  0  0  0  0
   29.0608   11.0194    1.7411 C   0  0  2  0  0  0  0  0  0  0  0  0
   28.1214   11.7105    2.6464 O   0  0  0  0  0  0  0  0  0  0  0  0
   30.5643   11.5697    1.9361 C   0  0  1  0  0  0  0  0  0  0  0  0
   30.9636   11.2773    3.2379 O   0  0  0  0  0  0  0  0  0  0  0  0
   27.9420   11.4797    3.9023 C   0  0  1  0  0  0  0  0  0  0  0  0
   27.0727   12.5237    4.6632 C   0  0  2  0  0  0  0  0  0  0  0  0
   27.9214   13.4998    5.1795 O   0  0  0  0  0  0  0  0  0  0  0  0
   26.5495   11.6436    5.7214 C   0  0  1  0  0  0  0  0  0  0  0  0
   26.2378   10.2530    5.0869 C   0  0  2  0  0  0  0  0  0  0  0  0
   27.3350   10.1825    4.2097 O   0  0  0  0  0  0  0  0  0  0  0  0
   24.8439   10.0213    4.5019 C   0  0  0  0  0  0  0  0  0  0  0  0
   23.9238   10.4235    5.4991 O   0  0  0  0  0  0  0  0  0  0  0  0
   27.2269   11.2482    8.0469 C   0  0  2  0  0  0  0  0  0  0  0  0
   27.6102   11.5744    6.7780 O   0  0  0  0  0  0  0  0  0  0  0  0
   28.3962   10.8825    8.9130 C   0  0  1  0  0  0  0  0  0  0  0  0
   25.1388    7.2933    8.5683 N   0  0  0  0  0  0  0  0  0  0  0  0
   36.1860   10.2150    2.4921 O   0  0  0  0  0  0  0  0  0  0  0  0
   27.8776   10.4689   10.3448 C   0  0  2  0  0  0  0  0  0  0  0  0
   26.8425    9.2912   10.3234 C   0  0  1  0  0  0  0  0  0  0  0  0
   25.7236    9.6701    9.4928 C   0  0  1  0  0  0  0  0  0  0  0  0
   26.1960   10.0732    8.1088 O   0  0  0  0  0  0  0  0  0  0  0  0
   24.6655    8.4843    9.4065 C   0  0  0  0  0  0  0  0  0  0  0  0
   29.0802    9.7809    8.3608 N   0  0  0  0  0  0  0  0  0  0  0  0
   23.8927    9.0765   -1.2468 O   0  0  0  0  0  0  0  0  0  0  0  0
   35.9492   10.6359    0.2725 C   0  0  0  0  0  0  0  0  0  0  0  0
   27.3517    8.3708    9.8640 O   0  0  0  0  0  0  0  0  0  0  0  0
   27.3391   11.3746   10.8061 O   0  0  0  0  0  0  0  0  0  0  0  0
   33.9304   10.2099    1.4316 C   0  0  0  0  0  0  0  0  0  0  0  0
   35.4786   11.6076   -0.5821 C   0  0  0  0  0  0  0  0  0  0  0  0
   35.4142   10.8485    1.4742 C   0  0  1  0  0  0  0  0  0  0  0  0
   23.1829   11.5972   -1.7404 F   0  0  0  0  0  0  0  0  0  0  0  0
  1  2  1  6  0  0  0
  1 10  1  0  0  0  0
  1  3  1  0  0  0  0
  3  4  1  1  0  0  0
  3  6  1  0  0  0  0
  5 46  2  0  0  0  0
  6 42  1  1  0  0  0
  6  8  1  0  0  0  0
  7 47  1  0  0  0  0
  8  9  1  0  0  0  0
  8 49  1  1  0  0  0
  9 10  1  0  0  0  0
  9 11  1  6  0  0  0
 11 12  1  0  0  0  0
 13 14  1  6  0  0  0
 13 15  1  0  0  0  0
 13 21  1  0  0  0  0
 14 46  1  0  0  0  0
 15 16  1  0  0  0  0
 16 17  1  6  0  0  0
 16 18  1  0  0  0  0
 18  2  1  1  0  0  0
 18 19  1  0  0  0  0
 19 20  1  1  0  0  0
 19 21  1  0  0  0  0
 21 22  1  1  0  0  0
 23 20  1  6  0  0  0
 23 24  1  0  0  0  0
 23 28  1  0  0  0  0
 24 25  1  1  0  0  0
 24 26  1  0  0  0  0
 26 27  1  0  0  0  0
 26 32  1  1  0  0  0
 27 28  1  0  0  0  0
 27 29  1  6  0  0  0
 29 30  1  0  0  0  0
 31 32  1  6  0  0  0
 31 33  1  0  0  0  0
 31 39  1  0  0  0  0
 33 36  1  0  0  0  0
 33 41  1  6  0  0  0
 34 40  1  0  0  0  0
 35 48  1  0  0  0  0
 36 37  1  0  0  0  0
 36 45  1  6  0  0  0
 37 38  1  0  0  0  0
 37 44  1  6  0  0  0
 38 39  1  0  0  0  0
 38 40  1  6  0  0  0
 43 47  1  0  0  0  0
 46 48  1  0  0  0  0
 48 43  1  6  0  0  0
M  END
>  <CHROM.1>
-162.06616842,-159.36184606,-166.49296120,-125.45878306,162.83675569,169.59627310
156.64601688,-50.12753872,165.77184692,-71.61126349,58.16196349,-159.32616289
-32.46095597,28.22140908,10.84735414,3.05087564,1.20302796,-0.01217143,-1.42017651

>  <Name>
ligand

>  <RI>
0

>  <Rbt.Current_Directory>
/home/itssahil/PROJECTS/Mol_Feturizer/New_Systems/rnas/4PDQ

>  <Rbt.Executable>
rbdock ($Id: //depot/dev/client3/rdock/2013.1/src/exe/rbdock.cxx#4 $)

>  <Rbt.Library>
libRbt.so (2013.1, Build901 2013/11/27)

>  <Rbt.Parameter_File>
/export/apps/rDock/src/rDock_2013.1_src/data/scripts/dock_solv.prm

>  <Rbt.Receptor>
prm/pocket_docking_2.prm

>  <SCORE>
-13.1455

>  <SCORE.INTER>
-4.38548

>  <SCORE.INTER.CONST>
1

>  <SCORE.INTER.POLAR>
0

>  <SCORE.INTER.ROT>
13

>  <SCORE.INTER.SOLV>
29.7664

>  <SCORE.INTER.VDW>
-25.1124

>  <SCORE.INTER.norm>
-0.0894995

>  <SCORE.INTRA>
-8.8414

>  <SCORE.INTRA.DIHEDRAL>
-20.1438

>  <SCORE.INTRA.DIHEDRAL.0>
34.5115

>  <SCORE.INTRA.POLAR>
0

>  <SCORE.INTRA.POLAR.0>
0

>  <SCORE.INTRA.REPUL>
0

>  <SCORE.INTRA.REPUL.0>
0

>  <SCORE.INTRA.SOLV>
0.386473

>  <SCORE.INTRA.SOLV.lig_0>
-122.812

>  <SCORE.INTRA.VDW>
1.03728

>  <SCORE.INTRA.VDW.0>
-7.46208

>  <SCORE.INTRA.norm>
-0.180437

>  <SCORE.RESTR>
0.0813632

>  <SCORE.RESTR.CAVITY>
0.0813632

>  <SCORE.RESTR.norm>
0.00166047

>  <SCORE.SYSTEM>
0

>  <SCORE.SYSTEM.CONST>
0

>  <SCORE.SYSTEM.DIHEDRAL>
0

>  <SCORE.SYSTEM.SOLV>
0

>  <SCORE.SYSTEM.norm>
0

>  <SCORE.heavy>
49

>  <SCORE.norm>
-0.268276

>  <RMSD>
1.194

$$$$
ligand
 OpenBabel11021811513D
libRbt.so/2013.1/901 2013/11/27
 49 52  0  0  0  0  0  0  0  0999 V2000
   26.0546   11.2863    0.8447 C   0  0  2  0  0  0  0  0  0  0  0  0
   27.2212   10.5394    0.6624 O   0  0  0  0  0  0  0  0  0  0  0  0
   24.7962   10.3753    0.5927 C   0  0  2  0  0  0  0  0  0  0  0  0
   24.8297    9.2008    1.5581 N   0  0  0  0  0  0  0  0  0  0  0  0
   33.4076    8.3553    0.7763 O   0  0  0  0  0  0  0  0  0  0  0  0
   24.7634    9.8965   -0.8775 C   0  0  2  0  0  0  0  0  0  0  0  0
   35.6616   11.2936   -0.5711 N   0  0  0  0  0  0  0  0  0  0  0  0
   24.7500   11.0997   -1.8334 C   0  0  2  0  0  0  0  0  0  0  0  0
   26.0054   12.0444   -1.6074 C   0  0  2  0  0  0  0  0  0  0  0  0
   26.0265   12.4482   -0.1320 O   0  0  0  0  0  0  0  0  0  0  0  0
   25.9562   13.2891   -2.5400 C   0  0  0  0  0  0  0  0  0  0  0  0
   24.8596   14.1533   -2.2856 N   0  0  0  0  0  0  0  0  0  0  0  0
   31.2772    9.8794    2.0465 C   0  0  2  0  0  0  0  0  0  0  0  0
   32.7263   10.1317    2.2988 N   0  0  0  0  0  0  0  0  0  0  0  0
   30.9923   10.2701    0.5159 C   0  0  0  0  0  0  0  0  0  0  0  0
   29.4822   10.0097    0.1551 C   0  0  2  0  0  0  0  0  0  0  0  0
   29.2038   10.3830   -1.2395 N   0  0  0  0  0  0  0  0  0  0  0  0
   28.5632   10.8429    1.0707 C   0  0  2  0  0  0  0  0  0  0  0  0
   28.8221   10.4845    2.5897 C   0  0  2  0  0  0  0  0  0  0  0  0
   27.8961   11.3228    3.3765 O   0  0  0  0  0  0  0  0  0  0  0  0
   30.3576   10.8216    2.9504 C   0  0  1  0  0  0  0  0  0  0  0  0
   30.5631   10.5072    4.2915 O   0  0  0  0  0  0  0  0  0  0  0  0
   27.6901   11.2687    4.6482 C   0  0  1  0  0  0  0  0  0  0  0  0
   27.0011   12.5168    5.2745 C   0  0  2  0  0  0  0  0  0  0  0  0
   27.9965   13.3996    5.6863 O   0  0  0  0  0  0  0  0  0  0  0  0
   26.3520   11.8572    6.4197 C   0  0  1  0  0  0  0  0  0  0  0  0
   25.8208   10.4696    5.9444 C   0  0  2  0  0  0  0  0  0  0  0  0
   26.8878   10.1271    5.0943 O   0  0  0  0  0  0  0  0  0  0  0  0
   24.4043   10.3950    5.3727 C   0  0  0  0  0  0  0  0  0  0  0  0
   24.5264   10.6193    3.9808 O   0  0  0  0  0  0  0  0  0  0  0  0
   26.9811   11.4373    8.7545 C   0  0  2  0  0  0  0  0  0  0  0  0
   27.3948   11.7433    7.4901 O   0  0  0  0  0  0  0  0  0  0  0  0
   28.1274   11.0679    9.6493 C   0  0  1  0  0  0  0  0  0  0  0  0
   23.3493    8.8949    8.9534 N   0  0  0  0  0  0  0  0  0  0  0  0
   36.1186    9.1182    0.9667 O   0  0  0  0  0  0  0  0  0  0  0  0
   27.5740   10.6781   11.0747 C   0  0  2  0  0  0  0  0  0  0  0  0
   26.5249    9.5131   11.0456 C   0  0  1  0  0  0  0  0  0  0  0  0
   25.4283    9.8954   10.1872 C   0  0  1  0  0  0  0  0  0  0  0  0
   25.9346   10.2758    8.8087 O   0  0  0  0  0  0  0  0  0  0  0  0
   24.3576    8.7216   10.0928 C   0  0  0  0  0  0  0  0  0  0  0  0
   28.8090    9.9514    9.1248 N   0  0  0  0  0  0  0  0  0  0  0  0
   23.8210    9.2719   -1.0453 O   0  0  0  0  0  0  0  0  0  0  0  0
   35.2738   10.9927    1.9324 C   0  0  0  0  0  0  0  0  0  0  0  0
   27.0320    8.5809   10.6080 O   0  0  0  0  0  0  0  0  0  0  0  0
   27.0372   11.5960   11.5138 O   0  0  0  0  0  0  0  0  0  0  0  0
   33.7044    9.2586    1.5711 C   0  0  0  0  0  0  0  0  0  0  0  0
   34.9707   11.4259    0.6609 C   0  0  0  0  0  0  0  0  0  0  0  0
   35.2260    9.6612    1.9373 C   0  0  1  0  0  0  0  0  0  0  0  0
   23.5860   11.8615   -1.6282 F   0  0  0  0  0  0  0  0  0  0  0  0
  1  2  1  6  0  0  0
  1 10  1  0  0  0  0
  1  3  1  0  0  0  0
  3  4  1  1  0  0  0
  3  6  1  0  0  0  0
  5 46  2  0  0  0  0
  6 42  1  1  0  0  0
  6  8  1  0  0  0  0
  7 47  1  0  0  0  0
  8  9  1  0  0  0  0
  8 49  1  1  0  0  0
  9 10  1  0  0  0  0
  9 11  1  6  0  0  0
 11 12  1  0  0  0  0
 13 14  1  1  0  0  0
 13 15  1  0  0  0  0
 13 21  1  0  0  0  0
 14 46  1  0  0  0  0
 15 16  1  0  0  0  0
 16 17  1  6  0  0  0
 16 18  1  0  0  0  0
 18  2  1  6  0  0  0
 18 19  1  0  0  0  0
 19 20  1  1  0  0  0
 19 21  1  0  0  0  0
 21 22  1  1  0  0  0
 23 20  1  6  0  0  0
 23 24  1  0  0  0  0
 23 28  1  0  0  0  0
 24 25  1  1  0  0  0
 24 26  1  0  0  0  0
 26 27  1  0  0  0  0
 26 32  1  1  0  0  0
 27 28  1  0  0  0  0
 27 29  1  6  0  0  0
 29 30  1  0  0  0  0
 31 32  1  6  0  0  0
 31 33  1  0  0  0  0
 31 39  1  0  0  0  0
 33 36  1  0  0  0  0
 33 41  1  6  0  0  0
 34 40  1  0  0  0  0
 35 48  1  0  0  0  0
 36 37  1  0  0  0  0
 36 45  1  6  0  0  0
 37 38  1  0  0  0  0
 37 44  1  6  0  0  0
 38 39  1  0  0  0  0
 38 40  1  6  0  0  0
 43 47  1  0  0  0  0
 46 48  1  0  0  0  0
 48 43  1  6  0  0  0
M  END
>  <CHROM.1>
-164.16442665,-157.83278129,64.16666483,-66.67100906,173.49419311,162.44367012
165.87516625,89.79189095,167.75594884,-165.80911075,-66.88138177,57.22118039
16.35086041,28.04707078,10.68406969,3.59630123,1.17851871,0.09247430,-1.48128629

>  <Name>
ligand

>  <RI>
0

>  <Rbt.Current_Directory>
/home/itssahil/PROJECTS/Mol_Feturizer/New_Systems/rnas/4PDQ

>  <Rbt.Executable>
rbdock ($Id: //depot/dev/client3/rdock/2013.1/src/exe/rbdock.cxx#4 $)

>  <Rbt.Library>
libRbt.so (2013.1, Build901 2013/11/27)

>  <Rbt.Parameter_File>
/export/apps/rDock/src/rDock_2013.1_src/data/scripts/dock_solv.prm

>  <Rbt.Receptor>
prm/pocket_docking_2.prm

>  <SCORE>
-4.4277

>  <SCORE.INTER>
-0.833775

>  <SCORE.INTER.CONST>
1

>  <SCORE.INTER.POLAR>
0

>  <SCORE.INTER.ROT>
13

>  <SCORE.INTER.SOLV>
25.1507

>  <SCORE.INTER.VDW>
-21.2061

>  <SCORE.INTER.norm>
-0.0170158

>  <SCORE.INTRA>
-3.63588

>  <SCORE.INTRA.DIHEDRAL>
-23.1568

>  <SCORE.INTRA.DIHEDRAL.0>
34.5115

>  <SCORE.INTRA.POLAR>
0

>  <SCORE.INTRA.POLAR.0>
0

>  <SCORE.INTRA.REPUL>
0

>  <SCORE.INTRA.REPUL.0>
0

>  <SCORE.INTRA.SOLV>
3.48408

>  <SCORE.INTRA.SOLV.lig_0>
-122.812

>  <SCORE.INTRA.VDW>
6.20046

>  <SCORE.INTRA.VDW.0>
-7.46208

>  <SCORE.INTRA.norm>
-0.0742017

>  <SCORE.RESTR>
0.0419606

>  <SCORE.RESTR.CAVITY>
0.0419606

>  <SCORE.RESTR.norm>
0.00085634

>  <SCORE.SYSTEM>
0

>  <SCORE.SYSTEM.CONST>
0

>  <SCORE.SYSTEM.DIHEDRAL>
0

>  <SCORE.SYSTEM.SOLV>
0

>  <SCORE.SYSTEM.norm>
0

>  <SCORE.heavy>
49

>  <SCORE.norm>
-0.0903611

>  <RMSD>
1.320

$$$$
ligand
 OpenBabel11021811513D
libRbt.so/2013.1/901 2013/11/27
 49 52  0  0  0  0  0  0  0  0999 V2000
   25.7226   10.7973    0.5447 C   0  0  2  0  0  0  0  0  0  0  0  0
   27.0224   10.5072    0.1223 O   0  0  0  0  0  0  0  0  0  0  0  0
   24.7536    9.6325    0.1187 C   0  0  2  0  0  0  0  0  0  0  0  0
   25.2349    8.3311    0.7408 N   0  0  0  0  0  0  0  0  0  0  0  0
   33.5943    9.3088    0.8080 O   0  0  0  0  0  0  0  0  0  0  0  0
   24.6813    9.5284   -1.4226 C   0  0  2  0  0  0  0  0  0  0  0  0
   35.5952   12.9705   -0.5310 N   0  0  0  0  0  0  0  0  0  0  0  0
   24.2122   10.8602   -2.0289 C   0  0  2  0  0  0  0  0  0  0  0  0
   25.1656   12.0613   -1.6191 C   0  0  2  0  0  0  0  0  0  0  0  0
   25.2486   12.0915   -0.0918 O   0  0  0  0  0  0  0  0  0  0  0  0
   24.6534   13.4151   -2.1905 C   0  0  0  0  0  0  0  0  0  0  0  0
   24.7687   13.5225   -3.6008 N   0  0  0  0  0  0  0  0  0  0  0  0
   31.1299   10.6957    1.4991 C   0  0  2  0  0  0  0  0  0  0  0  0
   32.4869   11.2515    1.7762 N   0  0  0  0  0  0  0  0  0  0  0  0
   30.7573   11.0972   -0.0097 C   0  0  0  0  0  0  0  0  0  0  0  0
   29.3421   10.5259   -0.3959 C   0  0  2  0  0  0  0  0  0  0  0  0
   28.9805   10.9043   -1.7699 N   0  0  0  0  0  0  0  0  0  0  0  0
   28.2644   11.0802    0.5570 C   0  0  2  0  0  0  0  0  0  0  0  0
   28.6043   10.7050    2.0559 C   0  0  2  0  0  0  0  0  0  0  0  0
   27.5179   11.2698    2.8806 O   0  0  0  0  0  0  0  0  0  0  0  0
   30.0271   11.3566    2.4465 C   0  0  1  0  0  0  0  0  0  0  0  0
   30.3041   11.0222    3.7698 O   0  0  0  0  0  0  0  0  0  0  0  0
   27.4034   11.2057    4.1634 C   0  0  1  0  0  0  0  0  0  0  0  0
   26.5454   12.3259    4.8217 C   0  0  2  0  0  0  0  0  0  0  0  0
   27.3932   13.3775    5.1611 O   0  0  0  0  0  0  0  0  0  0  0  0
   26.0944   11.5857    6.0119 C   0  0  1  0  0  0  0  0  0  0  0  0
   25.7875   10.1174    5.5836 C   0  0  2  0  0  0  0  0  0  0  0  0
   26.8437    9.9503    4.6698 O   0  0  0  0  0  0  0  0  0  0  0  0
   24.3738    9.7844    5.1047 C   0  0  0  0  0  0  0  0  0  0  0  0
   24.4215    8.4545    4.6232 O   0  0  0  0  0  0  0  0  0  0  0  0
   26.9738   11.1931    8.2693 C   0  0  2  0  0  0  0  0  0  0  0  0
   27.2049   11.6774    7.0141 O   0  0  0  0  0  0  0  0  0  0  0  0
   28.1932   11.2762    9.1395 C   0  0  1  0  0  0  0  0  0  0  0  0
   25.5339    6.8931   10.8648 N   0  0  0  0  0  0  0  0  0  0  0  0
   35.5114   10.7376    3.0019 O   0  0  0  0  0  0  0  0  0  0  0  0
   27.8702   10.6547   10.5535 C   0  0  2  0  0  0  0  0  0  0  0  0
   27.3629    9.1724   10.4886 C   0  0  1  0  0  0  0  0  0  0  0  0
   26.1850    9.1196    9.6548 C   0  0  1  0  0  0  0  0  0  0  0  0
   26.4693    9.7124    8.2877 O   0  0  0  0  0  0  0  0  0  0  0  0
   25.6596    7.6229    9.5245 C   0  0  0  0  0  0  0  0  0  0  0  0
   29.2464   10.5353    8.5667 N   0  0  0  0  0  0  0  0  0  0  0  0
   23.9419    8.7044   -1.7064 O   0  0  0  0  0  0  0  0  0  0  0  0
   35.9186   10.7988    0.7680 C   0  0  0  0  0  0  0  0  0  0  0  0
   28.1853    8.5295   10.0112 O   0  0  0  0  0  0  0  0  0  0  0  0
   27.0262   11.2727   11.0320 O   0  0  0  0  0  0  0  0  0  0  0  0
   33.6607   10.4145    1.3637 C   0  0  0  0  0  0  0  0  0  0  0  0
   35.6665   11.5655   -0.3476 C   0  0  0  0  0  0  0  0  0  0  0  0
   35.0536   11.1538    1.7171 C   0  0  1  0  0  0  0  0  0  0  0  0
   22.9134   11.1595   -1.5807 F   0  0  0  0  0  0  0  0  0  0  0  0
  1  2  1  6  0  0  0
  1 10  1  0  0  0  0
  1  3  1  0  0  0  0
  3  4  1  1  0  0  0
  3  6  1  0  0  0  0
  5 46  2  0  0  0  0
  6 42  1  1  0  0  0
  6  8  1  0  0  0  0
  7 47  1  0  0  0  0
  8  9  1  0  0  0  0
  8 49  1  1  0  0  0
  9 10  1  0  0  0  0
  9 11  1  1  0  0  0
 11 12  1  0  0  0  0
 13 14  1  1  0  0  0
 13 15  1  0  0  0  0
 13 21  1  0  0  0  0
 14 46  1  0  0  0  0
 15 16  1  0  0  0  0
 16 17  1  6  0  0  0
 16 18  1  0  0  0  0
 18  2  1  6  0  0  0
 18 19  1  0  0  0  0
 19 20  1  1  0  0  0
 19 21  1  0  0  0  0
 21 22  1  1  0  0  0
 23 20  1  6  0  0  0
 23 24  1  0  0  0  0
 23 28  1  0  0  0  0
 24 25  1  1  0  0  0
 24 26  1  0  0  0  0
 26 27  1  0  0  0  0
 26 32  1  1  0  0  0
 27 28  1  0  0  0  0
 27 29  1  6  0  0  0
 29 30  1  0  0  0  0
 31 32  1  6  0  0  0
 31 33  1  0  0  0  0
 31 39  1  0  0  0  0
 33 36  1  0  0  0  0
 33 41  1  6  0  0  0
 34 40  1  0  0  0  0
 35 48  1  0  0  0  0
 36 37  1  0  0  0  0
 36 45  1  6  0  0  0
 37 38  1  0  0  0  0
 37 44  1  6  0  0  0
 38 39  1  0  0  0  0
 38 40  1  6  0  0  0
 43 47  1  0  0  0  0
 46 48  1  0  0  0  0
 48 43  1  6  0  0  0
M  END
>  <CHROM.1>
-162.68361492,-171.92418983,-69.48984859,-85.31081260,-179.46099683,155.72339786
172.85835765,172.60854897,176.63273680,48.95685052,54.65295279,-161.16865618
-88.02082777,28.02937549,10.64593293,3.27426695,1.35222243,-0.06822772,-1.43822747

>  <Name>
ligand

>  <RI>
0

>  <Rbt.Current_Directory>
/home/itssahil/PROJECTS/Mol_Feturizer/New_Systems/rnas/4PDQ

>  <Rbt.Executable>
rbdock ($Id: //depot/dev/client3/rdock/2013.1/src/exe/rbdock.cxx#4 $)

>  <Rbt.Library>
libRbt.so (2013.1, Build901 2013/11/27)

>  <Rbt.Parameter_File>
/export/apps/rDock/src/rDock_2013.1_src/data/scripts/dock_solv.prm

>  <Rbt.Receptor>
prm/pocket_docking_2.prm

>  <SCORE>
-16.795

>  <SCORE.INTER>
-5.66333

>  <SCORE.INTER.CONST>
1

>  <SCORE.INTER.POLAR>
0

>  <SCORE.INTER.ROT>
13

>  <SCORE.INTER.SOLV>
24.2522

>  <SCORE.INTER.VDW>
-24.1263

>  <SCORE.INTER.norm>
-0.115578

>  <SCORE.INTRA>
-11.1567

>  <SCORE.INTRA.DIHEDRAL>
-25.5069

>  <SCORE.INTRA.DIHEDRAL.0>
34.5115

>  <SCORE.INTRA.POLAR>
0

>  <SCORE.INTRA.POLAR.0>
0

>  <SCORE.INTRA.REPUL>
0

>  <SCORE.INTRA.REPUL.0>
0

>  <SCORE.INTRA.SOLV>
-2.67744

>  <SCORE.INTRA.SOLV.lig_0>
-122.812

>  <SCORE.INTRA.VDW>
2.93545

>  <SCORE.INTRA.VDW.0>
-7.46208

>  <SCORE.INTRA.norm>
-0.227688

>  <SCORE.RESTR>
0.02502

>  <SCORE.RESTR.CAVITY>
0.02502

>  <SCORE.RESTR.norm>
0.000510613

>  <SCORE.SYSTEM>
0

>  <SCORE.SYSTEM.CONST>
0

>  <SCORE.SYSTEM.DIHEDRAL>
0

>  <SCORE.SYSTEM.SOLV>
0

>  <SCORE.SYSTEM.norm>
0

>  <SCORE.heavy>
49

>  <SCORE.norm>
-0.342756

>  <RMSD>
1.384

$$$$
ligand
 OpenBabel11021811513D
libRbt.so/2013.1/901 2013/11/27
 49 52  0  0  0  0  0  0  0  0999 V2000
   27.2877    9.5693    1.2620 C   0  0  2  0  0  0  0  0  0  0  0  0
   28.4273    9.0266    0.6630 O   0  0  0  0  0  0  0  0  0  0  0  0
   26.0462    8.6453    0.9755 C   0  0  2  0  0  0  0  0  0  0  0  0
   26.3225    7.2547    1.5251 N   0  0  0  0  0  0  0  0  0  0  0  0
   33.5929   11.5421    0.1890 O   0  0  0  0  0  0  0  0  0  0  0  0
   25.7446    8.6032   -0.5408 C   0  0  2  0  0  0  0  0  0  0  0  0
   38.3063    9.2046    1.1556 N   0  0  0  0  0  0  0  0  0  0  0  0
   25.4886   10.0206   -1.0765 C   0  0  2  0  0  0  0  0  0  0  0  0
   26.7206   10.9838   -0.8038 C   0  0  2  0  0  0  0  0  0  0  0  0
   27.0151   10.9519    0.6971 O   0  0  0  0  0  0  0  0  0  0  0  0
   26.4323   12.4306   -1.2989 C   0  0  0  0  0  0  0  0  0  0  0  0
   25.2486   12.9967   -0.7580 N   0  0  0  0  0  0  0  0  0  0  0  0
   32.6937    9.0704    1.4368 C   0  0  2  0  0  0  0  0  0  0  0  0
   34.1318    9.4507    1.3176 N   0  0  0  0  0  0  0  0  0  0  0  0
   32.1384    8.8609   -0.0546 C   0  0  0  0  0  0  0  0  0  0  0  0
   30.6244    8.4310   -0.0211 C   0  0  2  0  0  0  0  0  0  0  0  0
   30.0982    8.2555   -1.3828 N   0  0  0  0  0  0  0  0  0  0  0  0
   29.7792    9.5079    0.6880 C   0  0  2  0  0  0  0  0  0  0  0  0
   30.3039    9.7422    2.1620 C   0  0  2  0  0  0  0  0  0  0  0  0
   29.4313   10.7763    2.7525 O   0  0  0  0  0  0  0  0  0  0  0  0
   31.8352   10.2443    2.0966 C   0  0  1  0  0  0  0  0  0  0  0  0
   32.2755   10.4522    3.4014 O   0  0  0  0  0  0  0  0  0  0  0  0
   28.9738   10.8104    3.9576 C   0  0  1  0  0  0  0  0  0  0  0  0
   28.3244   12.1561    4.3956 C   0  0  2  0  0  0  0  0  0  0  0  0
   29.3147   12.9466    4.9740 O   0  0  0  0  0  0  0  0  0  0  0  0
   27.3903   11.6303    5.4050 C   0  0  1  0  0  0  0  0  0  0  0  0
   26.8059   10.2855    4.8727 C   0  0  2  0  0  0  0  0  0  0  0  0
   27.9725    9.7866    4.2655 O   0  0  0  0  0  0  0  0  0  0  0  0
   25.5310   10.3347    4.0295 C   0  0  0  0  0  0  0  0  0  0  0  0
   24.5249   10.8775    4.8637 O   0  0  0  0  0  0  0  0  0  0  0  0
   27.4957   11.2218    7.8228 C   0  0  2  0  0  0  0  0  0  0  0  0
   28.1813   11.4600    6.6666 O   0  0  0  0  0  0  0  0  0  0  0  0
   28.4138   10.9353    8.9743 C   0  0  1  0  0  0  0  0  0  0  0  0
   25.3377    7.2566    8.1936 N   0  0  0  0  0  0  0  0  0  0  0  0
   36.2776   12.3687    0.1769 O   0  0  0  0  0  0  0  0  0  0  0  0
   27.5565   10.6200   10.2611 C   0  0  2  0  0  0  0  0  0  0  0  0
   26.5523    9.4305   10.0724 C   0  0  1  0  0  0  0  0  0  0  0  0
   25.6743    9.7335    8.9666 C   0  0  1  0  0  0  0  0  0  0  0  0
   26.4751   10.0411    7.7155 O   0  0  0  0  0  0  0  0  0  0  0  0
   24.6638    8.5309    8.7102 C   0  0  0  0  0  0  0  0  0  0  0  0
   29.2068    9.8054    8.6899 N   0  0  0  0  0  0  0  0  0  0  0  0
   24.8165    7.9603   -0.7186 O   0  0  0  0  0  0  0  0  0  0  0  0
   36.4732   10.8395    1.8451 C   0  0  0  0  0  0  0  0  0  0  0  0
   27.1540    8.4859    9.8213 O   0  0  0  0  0  0  0  0  0  0  0  0
   26.9257   11.5497   10.5078 O   0  0  0  0  0  0  0  0  0  0  0  0
   34.4356   10.7558    0.6444 C   0  0  0  0  0  0  0  0  0  0  0  0
   37.1643    9.6487    1.8707 C   0  0  0  0  0  0  0  0  0  0  0  0
   36.0274   11.0315    0.6043 C   0  0  1  0  0  0  0  0  0  0  0  0
   24.3555   10.5713   -0.4521 F   0  0  0  0  0  0  0  0  0  0  0  0
  1  2  1  6  0  0  0
  1 10  1  0  0  0  0
  1  3  1  0  0  0  0
  3  4  1  6  0  0  0
  3  6  1  0  0  0  0
  5 46  2  0  0  0  0
  6 42  1  1  0  0  0
  6  8  1  0  0  0  0
  7 47  1  0  0  0  0
  8  9  1  0  0  0  0
  8 49  1  1  0  0  0
  9 10  1  0  0  0  0
  9 11  1  1  0  0  0
 11 12  1  0  0  0  0
 13 14  1  6  0  0  0
 13 15  1  0  0  0  0
 13 21  1  0  0  0  0
 14 46  1  0  0  0  0
 15 16  1  0  0  0  0
 16 17  1  6  0  0  0
 16 18  1  0  0  0  0
 18  2  1  1  0  0  0
 18 19  1  0  0  0  0
 19 20  1  6  0  0  0
 19 21  1  0  0  0  0
 21 22  1  1  0  0  0
 23 20  1  6  0  0  0
 23 24  1  0  0  0  0
 23 28  1  0  0  0  0
 24 25  1  1  0  0  0
 24 26  1  0  0  0  0
 26 27  1  0  0  0  0
 26 32  1  1  0  0  0
 27 28  1  0  0  0  0
 27 29  1  6  0  0  0
 29 30  1  0  0  0  0
 31 32  1  6  0  0  0
 31 33  1  0  0  0  0
 31 39  1  0  0  0  0
 33 36  1  0  0  0  0
 33 41  1  6  0  0  0
 34 40  1  0  0  0  0
 35 48  1  0  0  0  0
 36 37  1  0  0  0  0
 36 45  1  6  0  0  0
 37 38  1  0  0  0  0
 37 44  1  6  0  0  0
 38 39  1  0  0  0  0
 38 40  1  6  0  0  0
 43 47  1  0  0  0  0
 46 48  1  0  0  0  0
 48 43  1  1  0  0  0
M  END
>  <CHROM.1>
-178.35729037,174.38771102,55.06338981,64.58688507,140.12191597,167.83234112
168.00206602,-61.94566857,174.21212652,-67.67913277,59.42511087,-134.08471862
9.17787496,28.97510870,10.16411923,3.29716719,0.76883909,-0.05653736,-1.59569971

>  <Name>
ligand

>  <RI>
0

>  <Rbt.Current_Directory>
/home/itssahil/PROJECTS/Mol_Feturizer/New_Systems/rnas/4PDQ

>  <Rbt.Executable>
rbdock ($Id: //depot/dev/client3/rdock/2013.1/src/exe/rbdock.cxx#4 $)

>  <Rbt.Library>
libRbt.so (2013.1, Build901 2013/11/27)

>  <Rbt.Parameter_File>
/export/apps/rDock/src/rDock_2013.1_src/data/scripts/dock_solv.prm

>  <Rbt.Receptor>
prm/pocket_docking_3.prm

>  <SCORE>
-5.95063

>  <SCORE.INTER>
3.27292

>  <SCORE.INTER.CONST>
1

>  <SCORE.INTER.POLAR>
0

>  <SCORE.INTER.ROT>
13

>  <SCORE.INTER.SOLV>
20.6502

>  <SCORE.INTER.VDW>
-16.9681

>  <SCORE.INTER.norm>
0.0667943

>  <SCORE.INTRA>
-9.22355

>  <SCORE.INTRA.DIHEDRAL>
-21.6308

>  <SCORE.INTRA.DIHEDRAL.0>
34.5115

>  <SCORE.INTRA.POLAR>
0

>  <SCORE.INTRA.POLAR.0>
0

>  <SCORE.INTRA.REPUL>
0

>  <SCORE.INTRA.REPUL.0>
0

>  <SCORE.INTRA.SOLV>
0.584523

>  <SCORE.INTRA.SOLV.lig_0>
-122.812

>  <SCORE.INTRA.VDW>
1.29958

>  <SCORE.INTRA.VDW.0>
-7.46208

>  <SCORE.INTRA.norm>
-0.188236

>  <SCORE.RESTR>
0

>  <SCORE.RESTR.CAVITY>
0

>  <SCORE.RESTR.norm>
0

>  <SCORE.SYSTEM>
0

>  <SCORE.SYSTEM.CONST>
0

>  <SCORE.SYSTEM.DIHEDRAL>
0

>  <SCORE.SYSTEM.SOLV>
0

>  <SCORE.SYSTEM.norm>
0

>  <SCORE.heavy>
49

>  <SCORE.norm>
-0.121441

>  <RMSD>
1.415

$$$$
ligand
 OpenBabel11021811513D
libRbt.so/2013.1/901 2013/11/27
 49 52  0  0  0  0  0  0  0  0999 V2000
   25.5423   11.2187    0.2374 C   0  0  2  0  0  0  0  0  0  0  0  0
   26.8298   10.8158   -0.1259 O   0  0  0  0  0  0  0  0  0  0  0  0
   24.5035   10.1097   -0.1729 C   0  0  2  0  0  0  0  0  0  0  0  0
   24.8662    8.8059    0.5206 N   0  0  0  0  0  0  0  0  0  0  0  0
   33.2404    9.2329    1.8005 O   0  0  0  0  0  0  0  0  0  0  0  0
   24.4735    9.9420   -1.7100 C   0  0  2  0  0  0  0  0  0  0  0  0
   35.7291   12.3007   -1.3570 N   0  0  0  0  0  0  0  0  0  0  0  0
   24.1246   11.2759   -2.3886 C   0  0  2  0  0  0  0  0  0  0  0  0
   25.1512   12.4214   -1.9965 C   0  0  2  0  0  0  0  0  0  0  0  0
   25.1868   12.5141   -0.4699 O   0  0  0  0  0  0  0  0  0  0  0  0
   24.7599   13.7819   -2.6427 C   0  0  0  0  0  0  0  0  0  0  0  0
   24.9139   13.8121   -4.0532 N   0  0  0  0  0  0  0  0  0  0  0  0
   30.9654   10.9370    1.1723 C   0  0  2  0  0  0  0  0  0  0  0  0
   32.3424   11.4633    1.4047 N   0  0  0  0  0  0  0  0  0  0  0  0
   30.5769   11.2920   -0.3441 C   0  0  0  0  0  0  0  0  0  0  0  0
   29.1393   10.7478   -0.6841 C   0  0  2  0  0  0  0  0  0  0  0  0
   28.7635   11.0846   -2.0651 N   0  0  0  0  0  0  0  0  0  0  0  0
   28.0952   11.3685    0.2654 C   0  0  2  0  0  0  0  0  0  0  0  0
   28.4516   11.0404    1.7715 C   0  0  2  0  0  0  0  0  0  0  0  0
   27.3968   11.6670    2.5925 O   0  0  0  0  0  0  0  0  0  0  0  0
   29.8991   11.6648    2.1125 C   0  0  1  0  0  0  0  0  0  0  0  0
   30.1907   11.3725    3.4426 O   0  0  0  0  0  0  0  0  0  0  0  0
   27.2380   11.5581    3.8675 C   0  0  1  0  0  0  0  0  0  0  0  0
   26.0326   12.3403    4.4672 C   0  0  2  0  0  0  0  0  0  0  0  0
   26.4808   13.6042    4.8435 O   0  0  0  0  0  0  0  0  0  0  0  0
   25.7761   11.4841    5.6373 C   0  0  1  0  0  0  0  0  0  0  0  0
   25.9776    9.9985    5.2060 C   0  0  2  0  0  0  0  0  0  0  0  0
   27.0807   10.1852    4.3536 O   0  0  0  0  0  0  0  0  0  0  0  0
   24.7725    9.2366    4.6527 C   0  0  0  0  0  0  0  0  0  0  0  0
   24.6850    9.5754    3.2815 O   0  0  0  0  0  0  0  0  0  0  0  0
   26.4813   11.5489    7.9872 C   0  0  2  0  0  0  0  0  0  0  0  0
   26.7423   11.9161    6.6985 O   0  0  0  0  0  0  0  0  0  0  0  0
   27.5360   12.0354    8.9370 C   0  0  1  0  0  0  0  0  0  0  0  0
   24.8518    7.3934    8.6590 N   0  0  0  0  0  0  0  0  0  0  0  0
   35.5107   10.6048    3.0548 O   0  0  0  0  0  0  0  0  0  0  0  0
   27.1990   11.5335   10.3946 C   0  0  2  0  0  0  0  0  0  0  0  0
   27.0590    9.9758   10.5074 C   0  0  1  0  0  0  0  0  0  0  0  0
   26.0330    9.5332    9.5925 C   0  0  1  0  0  0  0  0  0  0  0  0
   26.3337   10.0038    8.1820 O   0  0  0  0  0  0  0  0  0  0  0  0
   25.8866    7.9492    9.6415 C   0  0  0  0  0  0  0  0  0  0  0  0
   28.7923   11.5102    8.5735 N   0  0  0  0  0  0  0  0  0  0  0  0
   23.6843    9.1622   -1.9847 O   0  0  0  0  0  0  0  0  0  0  0  0
   35.5316   10.9749    0.8137 C   0  0  0  0  0  0  0  0  0  0  0  0
   28.0584    9.5001   10.2034 O   0  0  0  0  0  0  0  0  0  0  0  0
   26.1843   11.9801   10.7015 O   0  0  0  0  0  0  0  0  0  0  0  0
   33.4087   10.4582    1.7231 C   0  0  0  0  0  0  0  0  0  0  0  0
   35.2658   12.0168   -0.0464 C   0  0  0  0  0  0  0  0  0  0  0  0
   34.8401   11.1779    1.9344 C   0  0  1  0  0  0  0  0  0  0  0  0
   22.8379   11.6890   -1.9999 F   0  0  0  0  0  0  0  0  0  0  0  0
  1  2  1  6  0  0  0
  1 10  1  0  0  0  0
  1  3  1  0  0  0  0
  3  4  1  1  0  0  0
  3  6  1  0  0  0  0
  5 46  2  0  0  0  0
  6 42  1  1  0  0  0
  6  8  1  0  0  0  0
  7 47  1  0  0  0  0
  8  9  1  0  0  0  0
  8 49  1  1  0  0  0
  9 10  1  0  0  0  0
  9 11  1  6  0  0  0
 11 12  1  0  0  0  0
 13 14  1  1  0  0  0
 13 15  1  0  0  0  0
 13 21  1  0  0  0  0
 14 46  1  0  0  0  0
 15 16  1  0  0  0  0
 16 17  1  6  0  0  0
 16 18  1  0  0  0  0
 18  2  1  6  0  0  0
 18 19  1  0  0  0  0
 19 20  1  1  0  0  0
 19 21  1  0  0  0  0
 21 22  1  1  0  0  0
 23 20  1  6  0  0  0
 23 24  1  0  0  0  0
 23 28  1  0  0  0  0
 24 25  1  1  0  0  0
 24 26  1  0  0  0  0
 26 27  1  0  0  0  0
 26 32  1  1  0  0  0
 27 28  1  0  0  0  0
 27 29  1  6  0  0  0
 29 30  1  0  0  0  0
 31 32  1  6  0  0  0
 31 33  1  0  0  0  0
 31 39  1  0  0  0  0
 33 36  1  0  0  0  0
 33 41  1  6  0  0  0
 34 40  1  0  0  0  0
 35 48  1  0  0  0  0
 36 37  1  0  0  0  0
 36 45  1  6  0  0  0
 37 38  1  0  0  0  0
 37 44  1  6  0  0  0
 38 39  1  0  0  0  0
 38 40  1  6  0  0  0
 43 47  1  0  0  0  0
 46 48  1  0  0  0  0
 48 43  1  6  0  0  0
M  END
>  <CHROM.1>
-166.90386341,-167.06055792,-68.81185012,-117.10535769,174.00679124,179.79442847
162.28140770,83.17997210,179.36588578,-177.84963684,179.94814543,-150.77068771
-43.27850183,27.82513939,10.97461972,3.00310150,1.39564042,-0.02796452,-1.46460888

>  <Name>
ligand

>  <RI>
0

>  <Rbt.Current_Directory>
/home/itssahil/PROJECTS/Mol_Feturizer/New_Systems/rnas/4PDQ

>  <Rbt.Executable>
rbdock ($Id: //depot/dev/client3/rdock/2013.1/src/exe/rbdock.cxx#4 $)

>  <Rbt.Library>
libRbt.so (2013.1, Build901 2013/11/27)

>  <Rbt.Parameter_File>
/export/apps/rDock/src/rDock_2013.1_src/data/scripts/dock_solv.prm

>  <Rbt.Receptor>
prm/pocket_docking_3.prm

>  <SCORE>
-18.405

>  <SCORE.INTER>
-6.27531

>  <SCORE.INTER.CONST>
1

>  <SCORE.INTER.POLAR>
0

>  <SCORE.INTER.ROT>
13

>  <SCORE.INTER.SOLV>
24.7215

>  <SCORE.INTER.VDW>
-24.6907

>  <SCORE.INTER.norm>
-0.128068

>  <SCORE.INTRA>
-12.1297

>  <SCORE.INTRA.DIHEDRAL>
-23.422

>  <SCORE.INTRA.DIHEDRAL.0>
34.5115

>  <SCORE.INTRA.POLAR>
0

>  <SCORE.INTRA.POLAR.0>
0

>  <SCORE.INTRA.REPUL>
0

>  <SCORE.INTRA.REPUL.0>
0

>  <SCORE.INTRA.SOLV>
-2.42657

>  <SCORE.INTRA.SOLV.lig_0>
-122.812

>  <SCORE.INTRA.VDW>
0.794551

>  <SCORE.INTRA.VDW.0>
-7.46208

>  <SCORE.INTRA.norm>
-0.247545

>  <SCORE.RESTR>
0

>  <SCORE.RESTR.CAVITY>
0

>  <SCORE.RESTR.norm>
0

>  <SCORE.SYSTEM>
0

>  <SCORE.SYSTEM.CONST>
0

>  <SCORE.SYSTEM.DIHEDRAL>
0

>  <SCORE.SYSTEM.SOLV>
0

>  <SCORE.SYSTEM.norm>
0

>  <SCORE.heavy>
49

>  <SCORE.norm>
-0.375613

>  <RMSD>
1.642

$$$$
ligand
 OpenBabel11021811513D
libRbt.so/2013.1/901 2013/11/27
 49 52  0  0  0  0  0  0  0  0999 V2000
   25.2421   10.9959    0.2697 C   0  0  2  0  0  0  0  0  0  0  0  0
   26.5573   10.6442   -0.0442 O   0  0  0  0  0  0  0  0  0  0  0  0
   24.2601    9.8657   -0.2156 C   0  0  2  0  0  0  0  0  0  0  0  0
   24.6342    8.5560    0.4607 N   0  0  0  0  0  0  0  0  0  0  0  0
   33.1226    9.4058    1.0218 O   0  0  0  0  0  0  0  0  0  0  0  0
   24.3048    9.7381   -1.7562 C   0  0  2  0  0  0  0  0  0  0  0  0
   35.7878   12.4758   -1.3540 N   0  0  0  0  0  0  0  0  0  0  0  0
   23.9429   11.0779   -2.4162 C   0  0  2  0  0  0  0  0  0  0  0  0
   24.9122   12.2447   -1.9487 C   0  0  2  0  0  0  0  0  0  0  0  0
   24.8761   12.2977   -0.4202 O   0  0  0  0  0  0  0  0  0  0  0  0
   24.5056   13.6087   -2.5776 C   0  0  0  0  0  0  0  0  0  0  0  0
   24.4580   13.5948   -3.9959 N   0  0  0  0  0  0  0  0  0  0  0  0
   30.6406   10.8803    1.3958 C   0  0  2  0  0  0  0  0  0  0  0  0
   31.9856   11.4528    1.6963 N   0  0  0  0  0  0  0  0  0  0  0  0
   30.2854   11.2849   -0.1164 C   0  0  0  0  0  0  0  0  0  0  0  0
   28.8841   10.6968   -0.5271 C   0  0  2  0  0  0  0  0  0  0  0  0
   28.5381   11.0778   -1.9044 N   0  0  0  0  0  0  0  0  0  0  0  0
   27.7847   11.2313    0.4124 C   0  0  2  0  0  0  0  0  0  0  0  0
   28.1070   10.8527    1.9142 C   0  0  2  0  0  0  0  0  0  0  0  0
   27.0007   11.3983    2.7253 O   0  0  0  0  0  0  0  0  0  0  0  0
   29.5147   11.5212    2.3298 C   0  0  1  0  0  0  0  0  0  0  0  0
   29.7763   11.1833    3.6553 O   0  0  0  0  0  0  0  0  0  0  0  0
   26.8735   11.3356    4.0070 C   0  0  1  0  0  0  0  0  0  0  0  0
   25.7815   12.2589    4.6231 C   0  0  2  0  0  0  0  0  0  0  0  0
   26.3775   13.4737    4.9531 O   0  0  0  0  0  0  0  0  0  0  0  0
   25.4720   11.4621    5.8220 C   0  0  1  0  0  0  0  0  0  0  0  0
   25.4952    9.9543    5.4229 C   0  0  2  0  0  0  0  0  0  0  0  0
   26.5832    9.9995    4.5325 O   0  0  0  0  0  0  0  0  0  0  0  0
   24.1963    9.3177    4.9264 C   0  0  0  0  0  0  0  0  0  0  0  0
   24.4652    7.9368    4.7730 O   0  0  0  0  0  0  0  0  0  0  0  0
   26.3324   11.3602    8.1183 C   0  0  2  0  0  0  0  0  0  0  0  0
   26.5144   11.8083    6.8418 O   0  0  0  0  0  0  0  0  0  0  0  0
   27.4152   11.8341    9.0424 C   0  0  1  0  0  0  0  0  0  0  0  0
   25.5486    7.0267   10.9270 N   0  0  0  0  0  0  0  0  0  0  0  0
   35.1096   10.7839    3.0060 O   0  0  0  0  0  0  0  0  0  0  0  0
   27.1708   11.2391   10.4834 C   0  0  2  0  0  0  0  0  0  0  0  0
   27.0934    9.6733   10.5131 C   0  0  1  0  0  0  0  0  0  0  0  0
   26.0394    9.2423    9.6249 C   0  0  1  0  0  0  0  0  0  0  0  0
   26.2511    9.8020    8.2310 O   0  0  0  0  0  0  0  0  0  0  0  0
   25.9535    7.6535    9.5898 C   0  0  0  0  0  0  0  0  0  0  0  0
   28.6699   11.3796    8.5890 N   0  0  0  0  0  0  0  0  0  0  0  0
   23.5550    8.9411   -2.0863 O   0  0  0  0  0  0  0  0  0  0  0  0
   35.3643   11.1383    0.7767 C   0  0  0  0  0  0  0  0  0  0  0  0
   28.0929    9.2548   10.1343 O   0  0  0  0  0  0  0  0  0  0  0  0
   26.1573   11.6279   10.8641 O   0  0  0  0  0  0  0  0  0  0  0  0
   33.1705   10.5658    1.4551 C   0  0  0  0  0  0  0  0  0  0  0  0
   35.2060   12.1959   -0.0907 C   0  0  0  0  0  0  0  0  0  0  0  0
   34.5492   11.3289    1.8134 C   0  0  1  0  0  0  0  0  0  0  0  0
   22.6270   11.4391   -2.0765 F   0  0  0  0  0  0  0  0  0  0  0  0
  1  2  1  6  0  0  0
  1 10  1  0  0  0  0
  1  3  1  0  0  0  0
  3  4  1  1  0  0  0
  3  6  1  0  0  0  0
  5 46  2  0  0  0  0
  6 42  1  6  0  0  0
  6  8  1  0  0  0  0
  7 47  1  0  0  0  0
  8  9  1  0  0  0  0
  8 49  1  1  0  0  0
  9 10  1  0  0  0  0
  9 11  1  6  0  0  0
 11 12  1  0  0  0  0
 13 14  1  1  0  0  0
 13 15  1  0  0  0  0
 13 21  1  0  0  0  0
 14 46  1  0  0  0  0
 15 16  1  0  0  0  0
 16 17  1  6  0  0  0
 16 18  1  0  0  0  0
 18  2  1  6  0  0  0
 18 19  1  0  0  0  0
 19 20  1  1  0  0  0
 19 21  1  0  0  0  0
 21 22  1  1  0  0  0
 23 20  1  6  0  0  0
 23 24  1  0  0  0  0
 23 28  1  0  0  0  0
 24 25  1  1  0  0  0
 24 26  1  0  0  0  0
 26 27  1  0  0  0  0
 26 32  1  1  0  0  0
 27 28  1  0  0  0  0
 27 29  1  6  0  0  0
 29 30  1  0  0  0  0
 31 32  1  6  0  0  0
 31 33  1  0  0  0  0
 31 39  1  0  0  0  0
 33 36  1  0  0  0  0
 33 41  1  6  0  0  0
 34 40  1  0  0  0  0
 35 48  1  0  0  0  0
 36 37  1  0  0  0  0
 36 45  1  6  0  0  0
 37 38  1  0  0  0  0
 37 44  1  6  0  0  0
 38 39  1  0  0  0  0
 38 40  1  6  0  0  0
 43 47  1  0  0  0  0
 46 48  1  0  0  0  0
 48 43  1  6  0  0  0
M  END
>  <CHROM.1>
-167.31038842,-165.49268237,-56.50833809,-92.68459801,-178.81622906,166.99094055
169.95764416,-174.04885177,-177.29647188,64.89640819,-177.73644410,-148.21787536
-72.31436721,27.61635273,10.81218753,3.13048245,1.41198308,-0.06660431,-1.44738114

>  <Name>
ligand

>  <RI>
0

>  <Rbt.Current_Directory>
/home/itssahil/PROJECTS/Mol_Feturizer/New_Systems/rnas/4PDQ

>  <Rbt.Executable>
rbdock ($Id: //depot/dev/client3/rdock/2013.1/src/exe/rbdock.cxx#4 $)

>  <Rbt.Library>
libRbt.so (2013.1, Build901 2013/11/27)

>  <Rbt.Parameter_File>
/export/apps/rDock/src/rDock_2013.1_src/data/scripts/dock_solv.prm

>  <Rbt.Receptor>
prm/pocket_docking_3.prm

>  <SCORE>
-20.6466

>  <SCORE.INTER>
-7.86108

>  <SCORE.INTER.CONST>
1

>  <SCORE.INTER.POLAR>
0

>  <SCORE.INTER.ROT>
13

>  <SCORE.INTER.SOLV>
23.8087

>  <SCORE.INTER.VDW>
-25.4436

>  <SCORE.INTER.norm>
-0.16043

>  <SCORE.INTRA>
-12.7855

>  <SCORE.INTRA.DIHEDRAL>
-25.2928

>  <SCORE.INTRA.DIHEDRAL.0>
34.5115

>  <SCORE.INTRA.POLAR>
0

>  <SCORE.INTRA.POLAR.0>
0

>  <SCORE.INTRA.REPUL>
0

>  <SCORE.INTRA.REPUL.0>
0

>  <SCORE.INTRA.SOLV>
-4.21922

>  <SCORE.INTRA.SOLV.lig_0>
-122.812

>  <SCORE.INTRA.VDW>
1.97055

>  <SCORE.INTRA.VDW.0>
-7.46208

>  <SCORE.INTRA.norm>
-0.260928

>  <SCORE.RESTR>
0

>  <SCORE.RESTR.CAVITY>
0

>  <SCORE.RESTR.norm>
0

>  <SCORE.SYSTEM>
0

>  <SCORE.SYSTEM.CONST>
0

>  <SCORE.SYSTEM.DIHEDRAL>
0

>  <SCORE.SYSTEM.SOLV>
0

>  <SCORE.SYSTEM.norm>
0

>  <SCORE.heavy>
49

>  <SCORE.norm>
-0.421358

>  <RMSD>
1.771

$$$$
ligand
 OpenBabel11021811513D
libRbt.so/2013.1/901 2013/11/27
 49 52  0  0  0  0  0  0  0  0999 V2000
   24.8749   10.9872    0.0279 C   0  0  2  0  0  0  0  0  0  0  0  0
   26.1865   10.6385   -0.3040 O   0  0  0  0  0  0  0  0  0  0  0  0
   23.9075    9.7908   -0.3037 C   0  0  2  0  0  0  0  0  0  0  0  0
   24.3446    8.5640    0.4815 N   0  0  0  0  0  0  0  0  0  0  0  0
   32.8109    9.8221   -0.1573 O   0  0  0  0  0  0  0  0  0  0  0  0
   23.8964    9.5127   -1.8250 C   0  0  2  0  0  0  0  0  0  0  0  0
   36.3333   13.2638   -0.4314 N   0  0  0  0  0  0  0  0  0  0  0  0
   23.4713   10.7714   -2.5974 C   0  0  2  0  0  0  0  0  0  0  0  0
   24.4243   12.0021   -2.2865 C   0  0  2  0  0  0  0  0  0  0  0  0
   24.4457   12.2051   -0.7704 O   0  0  0  0  0  0  0  0  0  0  0  0
   23.9551   13.2869   -3.0286 C   0  0  0  0  0  0  0  0  0  0  0  0
   24.9284   14.3192   -3.0593 N   0  0  0  0  0  0  0  0  0  0  0  0
   30.3347   10.8974    0.9321 C   0  0  2  0  0  0  0  0  0  0  0  0
   31.6760   11.4900    1.2094 N   0  0  0  0  0  0  0  0  0  0  0  0
   29.8830   11.4163   -0.5181 C   0  0  0  0  0  0  0  0  0  0  0  0
   28.4799   10.8154   -0.9034 C   0  0  2  0  0  0  0  0  0  0  0  0
   28.0456   11.2997   -2.2220 N   0  0  0  0  0  0  0  0  0  0  0  0
   27.4187   11.2283    0.1360 C   0  0  2  0  0  0  0  0  0  0  0  0
   27.8362   10.7349    1.5800 C   0  0  2  0  0  0  0  0  0  0  0  0
   26.7607   11.1696    2.4931 O   0  0  0  0  0  0  0  0  0  0  0  0
   29.2436   11.4157    1.9768 C   0  0  1  0  0  0  0  0  0  0  0  0
   29.5894   10.9757    3.2522 O   0  0  0  0  0  0  0  0  0  0  0  0
   26.6955   10.9717    3.7656 C   0  0  1  0  0  0  0  0  0  0  0  0
   25.5182   11.6787    4.4996 C   0  0  2  0  0  0  0  0  0  0  0  0
   25.9630   12.9267    4.9293 O   0  0  0  0  0  0  0  0  0  0  0  0
   25.3651   10.7398    5.6234 C   0  0  1  0  0  0  0  0  0  0  0  0
   25.5692    9.2924    5.0787 C   0  0  2  0  0  0  0  0  0  0  0  0
   26.6044    9.5657    4.1665 O   0  0  0  0  0  0  0  0  0  0  0  0
   24.3456    8.5360    4.5595 C   0  0  0  0  0  0  0  0  0  0  0  0
   23.4443    8.4466    5.6469 O   0  0  0  0  0  0  0  0  0  0  0  0
   26.2672   10.6184    7.9026 C   0  0  2  0  0  0  0  0  0  0  0  0
   26.3941   11.1267    6.6421 O   0  0  0  0  0  0  0  0  0  0  0  0
   27.3211   11.1446    8.8319 C   0  0  1  0  0  0  0  0  0  0  0  0
   27.4854    6.2949    8.5869 N   0  0  0  0  0  0  0  0  0  0  0  0
   34.5437   11.3591    2.3334 O   0  0  0  0  0  0  0  0  0  0  0  0
   27.1461   10.4790   10.2519 C   0  0  2  0  0  0  0  0  0  0  0  0
   27.1964    8.9120   10.2231 C   0  0  1  0  0  0  0  0  0  0  0  0
   26.1683    8.4296    9.3311 C   0  0  1  0  0  0  0  0  0  0  0  0
   26.3141    9.0557    7.9571 O   0  0  0  0  0  0  0  0  0  0  0  0
   26.2110    6.8414    9.2367 C   0  0  0  0  0  0  0  0  0  0  0  0
   28.6019   10.8110    8.3477 N   0  0  0  0  0  0  0  0  0  0  0  0
   23.1574    8.6688   -2.0444 O   0  0  0  0  0  0  0  0  0  0  0  0
   35.1764   11.0712    0.1708 C   0  0  0  0  0  0  0  0  0  0  0  0
   28.2211    8.5907    9.8176 O   0  0  0  0  0  0  0  0  0  0  0  0
   26.1100   10.7695   10.6584 O   0  0  0  0  0  0  0  0  0  0  0  0
   32.8588   10.8186    0.5778 C   0  0  0  0  0  0  0  0  0  0  0  0
   36.2235   11.9643    0.1273 C   0  0  0  0  0  0  0  0  0  0  0  0
   34.2314   11.5810    0.9598 C   0  0  1  0  0  0  0  0  0  0  0  0
   22.1598   11.1320   -2.2408 F   0  0  0  0  0  0  0  0  0  0  0  0
  1  2  1  6  0  0  0
  1 10  1  0  0  0  0
  1  3  1  0  0  0  0
  3  4  1  1  0  0  0
  3  6  1  0  0  0  0
  5 46  2  0  0  0  0
  6 42  1  1  0  0  0
  6  8  1  0  0  0  0
  7 47  1  0  0  0  0
  8  9  1  0  0  0  0
  8 49  1  1  0  0  0
  9 10  1  0  0  0  0
  9 11  1  6  0  0  0
 11 12  1  0  0  0  0
 13 14  1  1  0  0  0
 13 15  1  0  0  0  0
 13 21  1  0  0  0  0
 14 46  1  0  0  0  0
 15 16  1  0  0  0  0
 16 17  1  6  0  0  0
 16 18  1  0  0  0  0
 18  2  1  6  0  0  0
 18 19  1  0  0  0  0
 19 20  1  1  0  0  0
 19 21  1  0  0  0  0
 21 22  1  1  0  0  0
 23 20  1  6  0  0  0
 23 24  1  0  0  0  0
 23 28  1  0  0  0  0
 24 25  1  1  0  0  0
 24 26  1  0  0  0  0
 26 27  1  0  0  0  0
 26 32  1  1  0  0  0
 27 28  1  0  0  0  0
 27 29  1  6  0  0  0
 29 30  1  0  0  0  0
 31 32  1  6  0  0  0
 31 33  1  0  0  0  0
 31 39  1  0  0  0  0
 33 36  1  0  0  0  0
 33 41  1  6  0  0  0
 34 40  1  0  0  0  0
 35 48  1  0  0  0  0
 36 37  1  0  0  0  0
 36 45  1  6  0  0  0
 37 38  1  0  0  0  0
 37 44  1  6  0  0  0
 38 39  1  0  0  0  0
 38 40  1  6  0  0  0
 43 47  1  0  0  0  0
 46 48  1  0  0  0  0
 48 43  1  6  0  0  0
M  END
>  <CHROM.1>
-161.28394738,-159.75210932,-165.37618876,-80.12016848,179.78317203,173.57276028
165.18858938,-59.81400382,-177.00376373,-65.68529012,-67.76629232,-80.58716853
-109.89772441,27.46761337,10.57494404,2.85260877,1.41781588,-0.10751387,-1.37798676

>  <Name>
ligand

>  <RI>
0

>  <Rbt.Current_Directory>
/home/itssahil/PROJECTS/Mol_Feturizer/New_Systems/rnas/4PDQ

>  <Rbt.Executable>
rbdock ($Id: //depot/dev/client3/rdock/2013.1/src/exe/rbdock.cxx#4 $)

>  <Rbt.Library>
libRbt.so (2013.1, Build901 2013/11/27)

>  <Rbt.Parameter_File>
/export/apps/rDock/src/rDock_2013.1_src/data/scripts/dock_solv.prm

>  <Rbt.Receptor>
prm/pocket_docking_3.prm

>  <SCORE>
-18.4523

>  <SCORE.INTER>
-7.02681

>  <SCORE.INTER.CONST>
1

>  <SCORE.INTER.POLAR>
0

>  <SCORE.INTER.ROT>
13

>  <SCORE.INTER.SOLV>
28.4669

>  <SCORE.INTER.VDW>
-26.4402

>  <SCORE.INTER.norm>
-0.143404

>  <SCORE.INTRA>
-11.4255

>  <SCORE.INTRA.DIHEDRAL>
-26.0419

>  <SCORE.INTRA.DIHEDRAL.0>
34.5115

>  <SCORE.INTRA.POLAR>
0

>  <SCORE.INTRA.POLAR.0>
0

>  <SCORE.INTRA.REPUL>
0

>  <SCORE.INTRA.REPUL.0>
0

>  <SCORE.INTRA.SOLV>
-2.05536

>  <SCORE.INTRA.SOLV.lig_0>
-122.812

>  <SCORE.INTRA.VDW>
2.62313

>  <SCORE.INTRA.VDW.0>
-7.46208

>  <SCORE.INTRA.norm>
-0.233174

>  <SCORE.RESTR>
0

>  <SCORE.RESTR.CAVITY>
0

>  <SCORE.RESTR.norm>
0

>  <SCORE.SYSTEM>
0

>  <SCORE.SYSTEM.CONST>
0

>  <SCORE.SYSTEM.DIHEDRAL>
0

>  <SCORE.SYSTEM.SOLV>
0

>  <SCORE.SYSTEM.norm>
0

>  <SCORE.heavy>
49

>  <SCORE.norm>
-0.376578

>  <RMSD>
1.877

$$$$
ligand
 OpenBabel11021811513D
libRbt.so/2013.1/901 2013/11/27
 49 52  0  0  0  0  0  0  0  0999 V2000
   26.1334   11.6694    0.1270 C   0  0  2  0  0  0  0  0  0  0  0  0
   27.3569   11.0408   -0.1180 O   0  0  0  0  0  0  0  0  0  0  0  0
   24.9977   10.5877    0.2582 C   0  0  2  0  0  0  0  0  0  0  0  0
   25.3426    9.6382    1.3948 N   0  0  0  0  0  0  0  0  0  0  0  0
   33.7922    9.4660   -0.3171 O   0  0  0  0  0  0  0  0  0  0  0  0
   24.8202    9.8283   -1.0774 C   0  0  2  0  0  0  0  0  0  0  0  0
   37.4778    9.0120    0.6621 N   0  0  0  0  0  0  0  0  0  0  0  0
   24.4923   10.8099   -2.2133 C   0  0  2  0  0  0  0  0  0  0  0  0
   25.6164   11.9189   -2.3750 C   0  0  2  0  0  0  0  0  0  0  0  0
   25.7940   12.6051   -1.0193 O   0  0  0  0  0  0  0  0  0  0  0  0
   25.2508   12.9415   -3.4896 C   0  0  0  0  0  0  0  0  0  0  0  0
   24.0338   13.6333   -3.2563 N   0  0  0  0  0  0  0  0  0  0  0  0
   31.6074   11.0736    0.7396 C   0  0  2  0  0  0  0  0  0  0  0  0
   33.0297   11.5253    0.7392 N   0  0  0  0  0  0  0  0  0  0  0  0
   31.0807   11.1798   -0.7730 C   0  0  0  0  0  0  0  0  0  0  0  0
   29.5857   10.6960   -0.8687 C   0  0  2  0  0  0  0  0  0  0  0  0
   29.0850   10.8076   -2.2466 N   0  0  0  0  0  0  0  0  0  0  0  0
   28.6870   11.5555    0.0426 C   0  0  2  0  0  0  0  0  0  0  0  0
   29.1823   11.4762    1.5431 C   0  0  2  0  0  0  0  0  0  0  0  0
   28.2596   12.3193    2.3287 O   0  0  0  0  0  0  0  0  0  0  0  0
   30.6919   12.0381    1.6241 C   0  0  1  0  0  0  0  0  0  0  0  0
   31.1062   11.9675    2.9519 O   0  0  0  0  0  0  0  0  0  0  0  0
   27.9794   12.2041    3.5821 C   0  0  1  0  0  0  0  0  0  0  0  0
   26.9622   11.0829    3.9464 C   0  0  2  0  0  0  0  0  0  0  0  0
   25.6838   11.6355    3.9276 O   0  0  0  0  0  0  0  0  0  0  0  0
   27.4171   10.8123    5.3203 C   0  0  1  0  0  0  0  0  0  0  0  0
   28.9750   10.8891    5.3405 C   0  0  2  0  0  0  0  0  0  0  0  0
   29.1339   11.9679    4.4521 O   0  0  0  0  0  0  0  0  0  0  0  0
   29.7655    9.6112    5.0557 C   0  0  0  0  0  0  0  0  0  0  0  0
   31.1005   10.0160    4.8178 O   0  0  0  0  0  0  0  0  0  0  0  0
   26.1856   11.4322    7.3508 C   0  0  2  0  0  0  0  0  0  0  0  0
   26.7740   11.8486    6.1915 O   0  0  0  0  0  0  0  0  0  0  0  0
   27.1882   11.2132    8.4453 C   0  0  1  0  0  0  0  0  0  0  0  0
   24.6791    7.1445    7.5732 N   0  0  0  0  0  0  0  0  0  0  0  0
   35.4625   12.6230    0.0049 O   0  0  0  0  0  0  0  0  0  0  0  0
   26.4478   10.6859    9.7352 C   0  0  2  0  0  0  0  0  0  0  0  0
   25.6254    9.3723    9.4962 C   0  0  1  0  0  0  0  0  0  0  0  0
   24.6621    9.6107    8.4470 C   0  0  1  0  0  0  0  0  0  0  0  0
   25.3495   10.1194    7.1941 O   0  0  0  0  0  0  0  0  0  0  0  0
   23.8323    8.2877    8.1398 C   0  0  0  0  0  0  0  0  0  0  0  0
   28.1275   10.2390    8.0516 N   0  0  0  0  0  0  0  0  0  0  0  0
   23.9644    9.0784   -0.9690 O   0  0  0  0  0  0  0  0  0  0  0  0
   36.0031   10.9443    1.4366 C   0  0  0  0  0  0  0  0  0  0  0  0
   26.3496    8.5494    9.1560 O   0  0  0  0  0  0  0  0  0  0  0  0
   25.6969   11.4900   10.0710 O   0  0  0  0  0  0  0  0  0  0  0  0
   34.0419   10.5809    0.1627 C   0  0  0  0  0  0  0  0  0  0  0  0
   36.4713    9.6494    1.4325 C   0  0  0  0  0  0  0  0  0  0  0  0
   35.5271   11.2151    0.2219 C   0  0  1  0  0  0  0  0  0  0  0  0
   23.2726   11.4579   -1.9492 F   0  0  0  0  0  0  0  0  0  0  0  0
  1  2  1  6  0  0  0
  1 10  1  0  0  0  0
  1  3  1  0  0  0  0
  3  4  1  1  0  0  0
  3  6  1  0  0  0  0
  5 46  2  0  0  0  0
  6 42  1  1  0  0  0
  6  8  1  0  0  0  0
  7 47  1  0  0  0  0
  8  9  1  0  0  0  0
  8 49  1  1  0  0  0
  9 10  1  0  0  0  0
  9 11  1  6  0  0  0
 11 12  1  0  0  0  0
 13 14  1  6  0  0  0
 13 15  1  0  0  0  0
 13 21  1  0  0  0  0
 14 46  1  0  0  0  0
 15 16  1  0  0  0  0
 16 17  1  6  0  0  0
 16 18  1  0  0  0  0
 18  2  1  1  0  0  0
 18 19  1  0  0  0  0
 19 20  1  1  0  0  0
 19 21  1  0  0  0  0
 21 22  1  1  0  0  0
 23 20  1  6  0  0  0
 23 24  1  0  0  0  0
 23 28  1  0  0  0  0
 24 25  1  1  0  0  0
 24 26  1  0  0  0  0
 26 27  1  0  0  0  0
 26 32  1  1  0  0  0
 27 28  1  0  0  0  0
 27 29  1  6  0  0  0
 29 30  1  0  0  0  0
 31 32  1  6  0  0  0
 31 33  1  0  0  0  0
 31 39  1  0  0  0  0
 33 36  1  0  0  0  0
 33 41  1  6  0  0  0
 34 40  1  0  0  0  0
 35 48  1  0  0  0  0
 36 37  1  0  0  0  0
 36 45  1  6  0  0  0
 37 38  1  0  0  0  0
 37 44  1  6  0  0  0
 38 39  1  0  0  0  0
 38 40  1  6  0  0  0
 43 47  1  0  0  0  0
 46 48  1  0  0  0  0
 48 43  1  1  0  0  0
M  END
>  <CHROM.1>
-161.57777164,-157.99955300,59.56804188,-74.24223676,154.10877342,-78.81950829
133.45430826,166.24035344,80.19205143,-64.79574525,59.85398945,-159.66482745
143.77119264,28.33391371,10.85664569,2.67662700,0.91104387,0.02158355,-1.42617871

>  <Name>
ligand

>  <RI>
0

>  <Rbt.Current_Directory>
/home/itssahil/PROJECTS/Mol_Feturizer/New_Systems/rnas/4PDQ

>  <Rbt.Executable>
rbdock ($Id: //depot/dev/client3/rdock/2013.1/src/exe/rbdock.cxx#4 $)

>  <Rbt.Library>
libRbt.so (2013.1, Build901 2013/11/27)

>  <Rbt.Parameter_File>
/export/apps/rDock/src/rDock_2013.1_src/data/scripts/dock_solv.prm

>  <Rbt.Receptor>
prm/pocket_docking_2.prm

>  <SCORE>
-4.4228

>  <SCORE.INTER>
-2.70855

>  <SCORE.INTER.CONST>
1

>  <SCORE.INTER.POLAR>
0

>  <SCORE.INTER.ROT>
13

>  <SCORE.INTER.SOLV>
22.3826

>  <SCORE.INTER.VDW>
-21.5332

>  <SCORE.INTER.norm>
-0.0552765

>  <SCORE.INTRA>
-2.87955

>  <SCORE.INTRA.DIHEDRAL>
-14.5559

>  <SCORE.INTRA.DIHEDRAL.0>
34.5115

>  <SCORE.INTRA.POLAR>
0

>  <SCORE.INTRA.POLAR.0>
0

>  <SCORE.INTRA.REPUL>
0

>  <SCORE.INTRA.REPUL.0>
0

>  <SCORE.INTRA.SOLV>
5.77588

>  <SCORE.INTRA.SOLV.lig_0>
-122.812

>  <SCORE.INTRA.VDW>
1.51047

>  <SCORE.INTRA.VDW.0>
-7.46208

>  <SCORE.INTRA.norm>
-0.0587663

>  <SCORE.RESTR>
1.16529

>  <SCORE.RESTR.CAVITY>
1.16529

>  <SCORE.RESTR.norm>
0.0237815

>  <SCORE.SYSTEM>
0

>  <SCORE.SYSTEM.CONST>
0

>  <SCORE.SYSTEM.DIHEDRAL>
0

>  <SCORE.SYSTEM.SOLV>
0

>  <SCORE.SYSTEM.norm>
0

>  <SCORE.heavy>
49

>  <SCORE.norm>
-0.0902613

>  <RMSD>
1.898

$$$$
ligand
 OpenBabel11021811513D
libRbt.so/2013.1/901 2013/11/27
 49 52  0  0  0  0  0  0  0  0999 V2000
   25.7488   10.9478    0.3203 C   0  0  2  0  0  0  0  0  0  0  0  0
   27.0117   10.5710   -0.1433 O   0  0  0  0  0  0  0  0  0  0  0  0
   24.7346    9.7605    0.1223 C   0  0  2  0  0  0  0  0  0  0  0  0
   25.2372    8.5436    0.8831 N   0  0  0  0  0  0  0  0  0  0  0  0
   33.4809    9.5062   -0.4812 O   0  0  0  0  0  0  0  0  0  0  0  0
   24.5550    9.4509   -1.3822 C   0  0  2  0  0  0  0  0  0  0  0  0
   37.9111   11.0343    1.7022 N   0  0  0  0  0  0  0  0  0  0  0  0
   24.0662   10.6998   -2.1324 C   0  0  2  0  0  0  0  0  0  0  0  0
   25.0643   11.9211   -1.9542 C   0  0  2  0  0  0  0  0  0  0  0  0
   25.2525   12.1555   -0.4542 O   0  0  0  0  0  0  0  0  0  0  0  0
   24.5352   13.1976   -2.6701 C   0  0  0  0  0  0  0  0  0  0  0  0
   25.5296   14.1862   -2.8887 N   0  0  0  0  0  0  0  0  0  0  0  0
   31.1924   10.5184    1.0064 C   0  0  2  0  0  0  0  0  0  0  0  0
   32.5880   10.9999    1.2245 N   0  0  0  0  0  0  0  0  0  0  0  0
   30.7583   10.9889   -0.4656 C   0  0  0  0  0  0  0  0  0  0  0  0
   29.2980   10.4985   -0.7899 C   0  0  2  0  0  0  0  0  0  0  0  0
   28.8809   10.9408   -2.1287 N   0  0  0  0  0  0  0  0  0  0  0  0
   28.3021   11.0695    0.2392 C   0  0  2  0  0  0  0  0  0  0  0  0
   28.7044   10.6272    1.7039 C   0  0  2  0  0  0  0  0  0  0  0  0
   27.6934   11.2136    2.6058 O   0  0  0  0  0  0  0  0  0  0  0  0
   30.1765   11.1973    2.0347 C   0  0  1  0  0  0  0  0  0  0  0  0
   30.5086   10.8046    3.3290 O   0  0  0  0  0  0  0  0  0  0  0  0
   27.4043   10.8293    3.8023 C   0  0  1  0  0  0  0  0  0  0  0  0
   26.1736   11.5241    4.4559 C   0  0  2  0  0  0  0  0  0  0  0  0
   26.6267   12.6427    5.1512 O   0  0  0  0  0  0  0  0  0  0  0  0
   25.7711   10.4423    5.3701 C   0  0  1  0  0  0  0  0  0  0  0  0
   25.9616    9.0832    4.6284 C   0  0  2  0  0  0  0  0  0  0  0  0
   27.1503    9.3935    3.9436 O   0  0  0  0  0  0  0  0  0  0  0  0
   24.7915    8.5363    3.8095 C   0  0  0  0  0  0  0  0  0  0  0  0
   23.7158    8.3743    4.7147 O   0  0  0  0  0  0  0  0  0  0  0  0
   26.3384    9.7962    7.6688 C   0  0  2  0  0  0  0  0  0  0  0  0
   26.6412   10.5675    6.5840 O   0  0  0  0  0  0  0  0  0  0  0  0
   24.9642   10.0823    8.1986 C   0  0  1  0  0  0  0  0  0  0  0  0
   28.0032    8.4930   12.4499 N   0  0  0  0  0  0  0  0  0  0  0  0
   35.0462   12.4320    0.6497 O   0  0  0  0  0  0  0  0  0  0  0  0
   24.7015    9.1959    9.4775 C   0  0  2  0  0  0  0  0  0  0  0  0
   25.7629    9.3999   10.6136 C   0  0  1  0  0  0  0  0  0  0  0  0
   27.0743    9.1097   10.0829 C   0  0  1  0  0  0  0  0  0  0  0  0
   27.3517    9.9498    8.8507 O   0  0  0  0  0  0  0  0  0  0  0  0
   28.1906    9.3466   11.1924 C   0  0  0  0  0  0  0  0  0  0  0  0
   24.8650   11.4362    8.5773 N   0  0  0  0  0  0  0  0  0  0  0  0
   23.7849    8.6147   -1.5015 O   0  0  0  0  0  0  0  0  0  0  0  0
   35.4083   10.6121    1.9601 C   0  0  0  0  0  0  0  0  0  0  0  0
   25.7309   10.4984   10.9451 O   0  0  0  0  0  0  0  0  0  0  0  0
   24.7594    8.0904    9.1651 O   0  0  0  0  0  0  0  0  0  0  0  0
   33.6607   10.3773    0.3816 C   0  0  0  0  0  0  0  0  0  0  0  0
   36.7443   10.2797    1.9887 C   0  0  0  0  0  0  0  0  0  0  0  0
   35.1081   11.0093    0.7242 C   0  0  1  0  0  0  0  0  0  0  0  0
   22.8061   11.0891   -1.6445 F   0  0  0  0  0  0  0  0  0  0  0  0
  1  2  1  6  0  0  0
  1 10  1  0  0  0  0
  1  3  1  0  0  0  0
  3  4  1  1  0  0  0
  3  6  1  0  0  0  0
  5 46  2  0  0  0  0
  6 42  1  1  0  0  0
  6  8  1  0  0  0  0
  7 47  1  0  0  0  0
  8  9  1  0  0  0  0
  8 49  1  1  0  0  0
  9 10  1  0  0  0  0
  9 11  1  6  0  0  0
 11 12  1  0  0  0  0
 13 14  1  1  0  0  0
 13 15  1  0  0  0  0
 13 21  1  0  0  0  0
 14 46  1  0  0  0  0
 15 16  1  0  0  0  0
 16 17  1  6  0  0  0
 16 18  1  0  0  0  0
 18  2  1  6  0  0  0
 18 19  1  0  0  0  0
 19 20  1  1  0  0  0
 19 21  1  0  0  0  0
 21 22  1  1  0  0  0
 23 20  1  6  0  0  0
 23 24  1  0  0  0  0
 23 28  1  0  0  0  0
 24 25  1  1  0  0  0
 24 26  1  0  0  0  0
 26 27  1  0  0  0  0
 26 32  1  1  0  0  0
 27 28  1  0  0  0  0
 27 29  1  6  0  0  0
 29 30  1  0  0  0  0
 31 32  1  6  0  0  0
 31 33  1  0  0  0  0
 31 39  1  0  0  0  0
 33 36  1  0  0  0  0
 33 41  1  1  0  0  0
 34 40  1  0  0  0  0
 35 48  1  0  0  0  0
 36 37  1  0  0  0  0
 36 45  1  6  0  0  0
 37 38  1  0  0  0  0
 37 44  1  6  0  0  0
 38 39  1  0  0  0  0
 38 40  1  1  0  0  0
 43 47  1  0  0  0  0
 46 48  1  0  0  0  0
 48 43  1  1  0  0  0
M  END
>  <CHROM.1>
-154.99720040,-168.90249779,-162.40310608,-67.03063010,159.20332724,-172.83500179
170.79980760,-59.48299342,-60.31277370,58.91075657,58.89917509,-101.28041179
126.90995267,27.82790367,10.45291931,3.09952176,1.14359406,-0.03603262,-1.43074599

>  <Name>
ligand

>  <RI>
0

>  <Rbt.Current_Directory>
/home/itssahil/PROJECTS/Mol_Feturizer/New_Systems/rnas/4PDQ

>  <Rbt.Executable>
rbdock ($Id: //depot/dev/client3/rdock/2013.1/src/exe/rbdock.cxx#4 $)

>  <Rbt.Library>
libRbt.so (2013.1, Build901 2013/11/27)

>  <Rbt.Parameter_File>
/export/apps/rDock/src/rDock_2013.1_src/data/scripts/dock_solv.prm

>  <Rbt.Receptor>
prm/pocket_docking_2.prm

>  <SCORE>
-13.6609

>  <SCORE.INTER>
-4.89141

>  <SCORE.INTER.CONST>
1

>  <SCORE.INTER.POLAR>
0

>  <SCORE.INTER.ROT>
13

>  <SCORE.INTER.SOLV>
27.6423

>  <SCORE.INTER.VDW>
-24.7417

>  <SCORE.INTER.norm>
-0.0998246

>  <SCORE.INTRA>
-9.87589

>  <SCORE.INTRA.DIHEDRAL>
-22.6133

>  <SCORE.INTRA.DIHEDRAL.0>
34.5115

>  <SCORE.INTRA.POLAR>
0

>  <SCORE.INTRA.POLAR.0>
0

>  <SCORE.INTRA.REPUL>
0

>  <SCORE.INTRA.REPUL.0>
0

>  <SCORE.INTRA.SOLV>
-0.723835

>  <SCORE.INTRA.SOLV.lig_0>
-122.812

>  <SCORE.INTRA.VDW>
1.79268

>  <SCORE.INTRA.VDW.0>
-7.46208

>  <SCORE.INTRA.norm>
-0.201549

>  <SCORE.RESTR>
1.10644

>  <SCORE.RESTR.CAVITY>
1.10644

>  <SCORE.RESTR.norm>
0.0225804

>  <SCORE.SYSTEM>
0

>  <SCORE.SYSTEM.CONST>
0

>  <SCORE.SYSTEM.DIHEDRAL>
0

>  <SCORE.SYSTEM.SOLV>
0

>  <SCORE.SYSTEM.norm>
0

>  <SCORE.heavy>
49

>  <SCORE.norm>
-0.278793

>  <RMSD>
1.915

$$$$
ligand
 OpenBabel11021811513D
libRbt.so/2013.1/901 2013/11/27
 49 52  0  0  0  0  0  0  0  0999 V2000
   26.1602   10.6609    0.7189 C   0  0  2  0  0  0  0  0  0  0  0  0
   27.4008   10.3557    0.1534 O   0  0  0  0  0  0  0  0  0  0  0  0
   25.1933    9.4274    0.5749 C   0  0  2  0  0  0  0  0  0  0  0  0
   25.8117    8.2253    1.2711 N   0  0  0  0  0  0  0  0  0  0  0  0
   33.9871    8.8898    1.6080 O   0  0  0  0  0  0  0  0  0  0  0  0
   24.9140    9.1332   -0.9176 C   0  0  2  0  0  0  0  0  0  0  0  0
   35.5807   12.9987   -0.5305 N   0  0  0  0  0  0  0  0  0  0  0  0
   24.3085   10.3678   -1.6036 C   0  0  2  0  0  0  0  0  0  0  0  0
   25.2562   11.6349   -1.4774 C   0  0  2  0  0  0  0  0  0  0  0  0
   25.5474   11.8543    0.0083 O   0  0  0  0  0  0  0  0  0  0  0  0
   24.6119   12.8943   -2.1256 C   0  0  0  0  0  0  0  0  0  0  0  0
   25.5339   13.9421   -2.3828 N   0  0  0  0  0  0  0  0  0  0  0  0
   31.6776   10.4943    0.8555 C   0  0  2  0  0  0  0  0  0  0  0  0
   33.0561   11.0523    0.9795 N   0  0  0  0  0  0  0  0  0  0  0  0
   31.0562   11.0762   -0.5053 C   0  0  0  0  0  0  0  0  0  0  0  0
   29.6024   10.5153   -0.7286 C   0  0  2  0  0  0  0  0  0  0  0  0
   29.0143   11.0572   -1.9624 N   0  0  0  0  0  0  0  0  0  0  0  0
   28.6919   10.9065    0.4525 C   0  0  2  0  0  0  0  0  0  0  0  0
   29.2791   10.3510    1.8124 C   0  0  2  0  0  0  0  0  0  0  0  0
   28.3388   10.7691    2.8709 O   0  0  0  0  0  0  0  0  0  0  0  0
   30.7404   10.9912    2.0494 C   0  0  1  0  0  0  0  0  0  0  0  0
   31.2362   10.4968    3.2533 O   0  0  0  0  0  0  0  0  0  0  0  0
   28.0936   10.1555    3.9782 C   0  0  1  0  0  0  0  0  0  0  0  0
   27.6433   11.0576    5.1648 C   0  0  2  0  0  0  0  0  0  0  0  0
   28.7798   11.4404    5.8732 O   0  0  0  0  0  0  0  0  0  0  0  0
   26.8496   10.0638    5.9067 C   0  0  1  0  0  0  0  0  0  0  0  0
   26.0724    9.1922    4.8724 C   0  0  2  0  0  0  0  0  0  0  0  0
   27.0744    9.1071    3.8890 O   0  0  0  0  0  0  0  0  0  0  0  0
   24.6833    9.6579    4.4335 C   0  0  0  0  0  0  0  0  0  0  0  0
   23.9121    9.7719    5.6145 O   0  0  0  0  0  0  0  0  0  0  0  0
   27.5276    9.0500    8.0365 C   0  0  2  0  0  0  0  0  0  0  0  0
   27.8229    9.2669    6.7215 O   0  0  0  0  0  0  0  0  0  0  0  0
   26.3406    8.1483    8.2069 C   0  0  1  0  0  0  0  0  0  0  0  0
   26.8132   11.5566   12.5413 N   0  0  0  0  0  0  0  0  0  0  0  0
   36.3522   10.2910    2.5153 O   0  0  0  0  0  0  0  0  0  0  0  0
   26.0256    7.9829    9.7443 C   0  0  2  0  0  0  0  0  0  0  0  0
   25.7721    9.3418   10.4846 C   0  0  1  0  0  0  0  0  0  0  0  0
   26.9304   10.1875   10.3148 C   0  0  1  0  0  0  0  0  0  0  0  0
   27.2550   10.3623    8.8433 O   0  0  0  0  0  0  0  0  0  0  0  0
   26.6993   11.5980   11.0148 C   0  0  0  0  0  0  0  0  0  0  0  0
   25.2094    8.7171    7.5877 N   0  0  0  0  0  0  0  0  0  0  0  0
   24.1790    8.2613   -0.9946 O   0  0  0  0  0  0  0  0  0  0  0  0
   36.1626   10.6508    0.2804 C   0  0  0  0  0  0  0  0  0  0  0  0
   24.8648    9.8527   10.0016 O   0  0  0  0  0  0  0  0  0  0  0  0
   26.9394    7.4976   10.2469 O   0  0  0  0  0  0  0  0  0  0  0  0
   34.1414   10.0982    1.3804 C   0  0  0  0  0  0  0  0  0  0  0  0
   35.6702   11.5846   -0.6037 C   0  0  0  0  0  0  0  0  0  0  0  0
   35.5718   10.8460    1.4587 C   0  0  1  0  0  0  0  0  0  0  0  0
   23.0720   10.6852   -1.0139 F   0  0  0  0  0  0  0  0  0  0  0  0
  1  2  1  6  0  0  0
  1 10  1  0  0  0  0
  1  3  1  0  0  0  0
  3  4  1  6  0  0  0
  3  6  1  0  0  0  0
  5 46  2  0  0  0  0
  6 42  1  1  0  0  0
  6  8  1  0  0  0  0
  7 47  1  0  0  0  0
  8  9  1  0  0  0  0
  8 49  1  1  0  0  0
  9 10  1  0  0  0  0
  9 11  1  1  0  0  0
 11 12  1  0  0  0  0
 13 14  1  1  0  0  0
 13 15  1  0  0  0  0
 13 21  1  0  0  0  0
 14 46  1  0  0  0  0
 15 16  1  0  0  0  0
 16 17  1  6  0  0  0
 16 18  1  0  0  0  0
 18  2  1  6  0  0  0
 18 19  1  0  0  0  0
 19 20  1  1  0  0  0
 19 21  1  0  0  0  0
 21 22  1  1  0  0  0
 23 20  1  6  0  0  0
 23 24  1  0  0  0  0
 23 28  1  0  0  0  0
 24 25  1  1  0  0  0
 24 26  1  0  0  0  0
 26 27  1  0  0  0  0
 26 32  1  6  0  0  0
 27 28  1  0  0  0  0
 27 29  1  6  0  0  0
 29 30  1  0  0  0  0
 31 32  1  6  0  0  0
 31 33  1  0  0  0  0
 31 39  1  0  0  0  0
 33 36  1  0  0  0  0
 33 41  1  6  0  0  0
 34 40  1  0  0  0  0
 35 48  1  0  0  0  0
 36 37  1  0  0  0  0
 36 45  1  1  0  0  0
 37 38  1  0  0  0  0
 37 44  1  6  0  0  0
 38 39  1  0  0  0  0
 38 40  1  6  0  0  0
 43 47  1  0  0  0  0
 46 48  1  0  0  0  0
 48 43  1  6  0  0  0
M  END
>  <CHROM.1>
-154.56827216,-163.86958753,-163.20959411,-135.19842536,150.31913512,151.71514104
132.88412983,-57.12422653,67.88506044,75.46661509,53.14564796,-158.21475635
-35.83551077,28.19275646,10.29055801,3.29344449,1.07930987,-0.05598294,-1.44719377

>  <Name>
ligand

>  <RI>
0

>  <Rbt.Current_Directory>
/home/itssahil/PROJECTS/Mol_Feturizer/New_Systems/rnas/4PDQ

>  <Rbt.Executable>
rbdock ($Id: //depot/dev/client3/rdock/2013.1/src/exe/rbdock.cxx#4 $)

>  <Rbt.Library>
libRbt.so (2013.1, Build901 2013/11/27)

>  <Rbt.Parameter_File>
/export/apps/rDock/src/rDock_2013.1_src/data/scripts/dock_solv.prm

>  <Rbt.Receptor>
prm/pocket_docking_2.prm

>  <SCORE>
-2.85525

>  <SCORE.INTER>
-1.47329

>  <SCORE.INTER.CONST>
1

>  <SCORE.INTER.POLAR>
0

>  <SCORE.INTER.ROT>
13

>  <SCORE.INTER.SOLV>
26.0964

>  <SCORE.INTER.VDW>
-21.9477

>  <SCORE.INTER.norm>
-0.0300671

>  <SCORE.INTRA>
-2.08665

>  <SCORE.INTRA.DIHEDRAL>
-10.6522

>  <SCORE.INTRA.DIHEDRAL.0>
34.5115

>  <SCORE.INTRA.POLAR>
0

>  <SCORE.INTRA.POLAR.0>
0

>  <SCORE.INTRA.REPUL>
0

>  <SCORE.INTRA.REPUL.0>
0

>  <SCORE.INTRA.SOLV>
3.25655

>  <SCORE.INTRA.SOLV.lig_0>
-122.812

>  <SCORE.INTRA.VDW>
1.6112

>  <SCORE.INTRA.VDW.0>
-7.46208

>  <SCORE.INTRA.norm>
-0.0425847

>  <SCORE.RESTR>
0.704683

>  <SCORE.RESTR.CAVITY>
0.704683

>  <SCORE.RESTR.norm>
0.0143813

>  <SCORE.SYSTEM>
0

>  <SCORE.SYSTEM.CONST>
0

>  <SCORE.SYSTEM.DIHEDRAL>
0

>  <SCORE.SYSTEM.SOLV>
0

>  <SCORE.SYSTEM.norm>
0

>  <SCORE.heavy>
49

>  <SCORE.norm>
-0.0582705

>  <RMSD>
1.917

$$$$
ligand
 OpenBabel11021811513D
libRbt.so/2013.1/901 2013/11/27
 49 52  0  0  0  0  0  0  0  0999 V2000
   25.7481    9.7459    1.7473 C   0  0  2  0  0  0  0  0  0  0  0  0
   26.9592    9.0987    1.4894 O   0  0  0  0  0  0  0  0  0  0  0  0
   24.5572    8.8922    1.1729 C   0  0  2  0  0  0  0  0  0  0  0  0
   24.5716    7.5168    1.8213 N   0  0  0  0  0  0  0  0  0  0  0  0
   32.1753   11.4387    0.9689 O   0  0  0  0  0  0  0  0  0  0  0  0
   24.6604    8.7912   -0.3669 C   0  0  2  0  0  0  0  0  0  0  0  0
   37.2970   11.6078   -0.4343 N   0  0  0  0  0  0  0  0  0  0  0  0
   24.6639   10.1926   -0.9975 C   0  0  2  0  0  0  0  0  0  0  0  0
   25.8522   11.0853   -0.4401 C   0  0  2  0  0  0  0  0  0  0  0  0
   25.7405   11.1121    1.0854 O   0  0  0  0  0  0  0  0  0  0  0  0
   25.8164   12.5203   -1.0411 C   0  0  0  0  0  0  0  0  0  0  0  0
   24.6172   13.2275   -0.7657 N   0  0  0  0  0  0  0  0  0  0  0  0
   31.1323    9.3030    2.6499 C   0  0  2  0  0  0  0  0  0  0  0  0
   32.5709    9.6992    2.6289 N   0  0  0  0  0  0  0  0  0  0  0  0
   30.7233    8.9399    1.1408 C   0  0  0  0  0  0  0  0  0  0  0  0
   29.2177    8.4846    1.0748 C   0  0  2  0  0  0  0  0  0  0  0  0
   28.8251    8.1684   -0.3064 N   0  0  0  0  0  0  0  0  0  0  0  0
   28.2972    9.6074    1.5933 C   0  0  2  0  0  0  0  0  0  0  0  0
   28.6771    9.9930    3.0799 C   0  0  2  0  0  0  0  0  0  0  0  0
   27.7411   11.0613    3.4826 O   0  0  0  0  0  0  0  0  0  0  0  0
   30.2021   10.5174    3.1089 C   0  0  1  0  0  0  0  0  0  0  0  0
   30.5143   10.8587    4.4226 O   0  0  0  0  0  0  0  0  0  0  0  0
   27.2612   11.2693    4.6612 C   0  0  1  0  0  0  0  0  0  0  0  0
   26.1818   12.3868    4.7633 C   0  0  2  0  0  0  0  0  0  0  0  0
   26.8278   13.5884    5.0441 O   0  0  0  0  0  0  0  0  0  0  0  0
   25.4489   11.8773    5.9343 C   0  0  1  0  0  0  0  0  0  0  0  0
   25.3706   10.3235    5.8203 C   0  0  2  0  0  0  0  0  0  0  0  0
   26.6557   10.0961    5.2957 O   0  0  0  0  0  0  0  0  0  0  0  0
   24.1813    9.7121    5.0782 C   0  0  0  0  0  0  0  0  0  0  0  0
   24.3744    8.3104    5.1072 O   0  0  0  0  0  0  0  0  0  0  0  0
   25.8154   11.8622    8.3610 C   0  0  2  0  0  0  0  0  0  0  0  0
   26.2107   12.3326    7.1421 O   0  0  0  0  0  0  0  0  0  0  0  0
   26.5162   12.5599    9.4894 C   0  0  1  0  0  0  0  0  0  0  0  0
   25.2201    7.4121    8.7350 N   0  0  0  0  0  0  0  0  0  0  0  0
   35.1725   10.1735    2.6424 O   0  0  0  0  0  0  0  0  0  0  0  0
   26.0511   11.9336   10.8611 C   0  0  2  0  0  0  0  0  0  0  0  0
   26.2913   10.3873   10.9606 C   0  0  1  0  0  0  0  0  0  0  0  0
   25.6001    9.7379    9.8716 C   0  0  1  0  0  0  0  0  0  0  0  0
   26.0297   10.3229    8.5396 O   0  0  0  0  0  0  0  0  0  0  0  0
   25.8528    8.1669    9.9076 C   0  0  0  0  0  0  0  0  0  0  0  0
   27.9095   12.3803    9.3770 N   0  0  0  0  0  0  0  0  0  0  0  0
   23.7642    8.2025   -0.7629 O   0  0  0  0  0  0  0  0  0  0  0  0
   35.0105   11.0721    0.5624 C   0  0  0  0  0  0  0  0  0  0  0  0
   27.4171   10.1890   10.8572 O   0  0  0  0  0  0  0  0  0  0  0  0
   24.9176   12.0999   10.9648 O   0  0  0  0  0  0  0  0  0  0  0  0
   32.9541   10.8168    1.7054 C   0  0  0  0  0  0  0  0  0  0  0  0
   36.2991   11.5574    0.5729 C   0  0  0  0  0  0  0  0  0  0  0  0
   34.5351   11.1361    1.8055 C   0  0  1  0  0  0  0  0  0  0  0  0
   23.4530   10.8486   -0.7136 F   0  0  0  0  0  0  0  0  0  0  0  0
  1  2  1  6  0  0  0
  1 10  1  0  0  0  0
  1  3  1  0  0  0  0
  3  4  1  1  0  0  0
  3  6  1  0  0  0  0
  5 46  2  0  0  0  0
  6 42  1  6  0  0  0
  6  8  1  0  0  0  0
  7 47  1  0  0  0  0
  8  9  1  0  0  0  0
  8 49  1  1  0  0  0
  9 10  1  0  0  0  0
  9 11  1  6  0  0  0
 11 12  1  0  0  0  0
 13 14  1  6  0  0  0
 13 15  1  0  0  0  0
 13 21  1  0  0  0  0
 14 46  1  0  0  0  0
 15 16  1  0  0  0  0
 16 17  1  6  0  0  0
 16 18  1  0  0  0  0
 18  2  1  1  0  0  0
 18 19  1  0  0  0  0
 19 20  1  6  0  0  0
 19 21  1  0  0  0  0
 21 22  1  1  0  0  0
 23 20  1  6  0  0  0
 23 24  1  0  0  0  0
 23 28  1  0  0  0  0
 24 25  1  1  0  0  0
 24 26  1  0  0  0  0
 26 27  1  0  0  0  0
 26 32  1  1  0  0  0
 27 28  1  0  0  0  0
 27 29  1  6  0  0  0
 29 30  1  0  0  0  0
 31 32  1  6  0  0  0
 31 33  1  0  0  0  0
 31 39  1  0  0  0  0
 33 36  1  0  0  0  0
 33 41  1  6  0  0  0
 34 40  1  0  0  0  0
 35 48  1  0  0  0  0
 36 37  1  0  0  0  0
 36 45  1  6  0  0  0
 37 38  1  0  0  0  0
 37 44  1  6  0  0  0
 38 39  1  0  0  0  0
 38 40  1  6  0  0  0
 43 47  1  0  0  0  0
 46 48  1  0  0  0  0
 48 43  1  6  0  0  0
M  END
>  <CHROM.1>
166.82822664,-175.50024490,59.51084889,55.92830152,146.62101443,-174.09598910
-172.90868113,179.02545197,-170.95568859,-176.58876328,173.63826137,-70.60583901
-174.75614848,27.75437134,10.46901849,3.86815757,0.92864026,-0.09162412,-1.65846351

>  <Name>
ligand

>  <RI>
0

>  <Rbt.Current_Directory>
/home/itssahil/PROJECTS/Mol_Feturizer/New_Systems/rnas/4PDQ

>  <Rbt.Executable>
rbdock ($Id: //depot/dev/client3/rdock/2013.1/src/exe/rbdock.cxx#4 $)

>  <Rbt.Library>
libRbt.so (2013.1, Build901 2013/11/27)

>  <Rbt.Parameter_File>
/export/apps/rDock/src/rDock_2013.1_src/data/scripts/dock_solv.prm

>  <Rbt.Receptor>
prm/pocket_docking_3.prm

>  <SCORE>
-12.0967

>  <SCORE.INTER>
-1.20877

>  <SCORE.INTER.CONST>
1

>  <SCORE.INTER.POLAR>
0

>  <SCORE.INTER.ROT>
13

>  <SCORE.INTER.SOLV>
21.6654

>  <SCORE.INTER.VDW>
-20.2943

>  <SCORE.INTER.norm>
-0.0246688

>  <SCORE.INTRA>
-10.8952

>  <SCORE.INTRA.DIHEDRAL>
-25.445

>  <SCORE.INTRA.DIHEDRAL.0>
34.5115

>  <SCORE.INTRA.POLAR>
0

>  <SCORE.INTRA.POLAR.0>
0

>  <SCORE.INTRA.REPUL>
0

>  <SCORE.INTRA.REPUL.0>
0

>  <SCORE.INTRA.SOLV>
-0.675031

>  <SCORE.INTRA.SOLV.lig_0>
-122.812

>  <SCORE.INTRA.VDW>
2.16484

>  <SCORE.INTRA.VDW.0>
-7.46208

>  <SCORE.INTRA.norm>
-0.222351

>  <SCORE.RESTR>
0.00720916

>  <SCORE.RESTR.CAVITY>
0.00720916

>  <SCORE.RESTR.norm>
0.000147126

>  <SCORE.SYSTEM>
0

>  <SCORE.SYSTEM.CONST>
0

>  <SCORE.SYSTEM.DIHEDRAL>
0

>  <SCORE.SYSTEM.SOLV>
0

>  <SCORE.SYSTEM.norm>
0

>  <SCORE.heavy>
49

>  <SCORE.norm>
-0.246872

>  <RMSD>
1.993

$$$$
ligand
 OpenBabel11021811513D
libRbt.so/2013.1/901 2013/11/27
 49 52  0  0  0  0  0  0  0  0999 V2000
   25.4868   11.4378    0.2743 C   0  0  2  0  0  0  0  0  0  0  0  0
   26.7456   10.8890    0.0169 O   0  0  0  0  0  0  0  0  0  0  0  0
   24.3890   10.3135    0.1848 C   0  0  2  0  0  0  0  0  0  0  0  0
   24.7086    9.2233    1.1957 N   0  0  0  0  0  0  0  0  0  0  0  0
   33.3528    9.6440   -0.2989 O   0  0  0  0  0  0  0  0  0  0  0  0
   24.3146    9.7465   -1.2521 C   0  0  2  0  0  0  0  0  0  0  0  0
   37.4824   12.8943   -0.5368 N   0  0  0  0  0  0  0  0  0  0  0  0
   24.0106   10.8689   -2.2567 C   0  0  2  0  0  0  0  0  0  0  0  0
   25.0974   12.0242   -2.1943 C   0  0  2  0  0  0  0  0  0  0  0  0
   25.1738   12.5159   -0.7477 O   0  0  0  0  0  0  0  0  0  0  0  0
   24.7530   13.1830   -3.1743 C   0  0  0  0  0  0  0  0  0  0  0  0
   23.4848   13.7749   -2.9394 N   0  0  0  0  0  0  0  0  0  0  0  0
   31.0287   11.1148    0.6548 C   0  0  2  0  0  0  0  0  0  0  0  0
   32.4123   11.6739    0.6670 N   0  0  0  0  0  0  0  0  0  0  0  0
   30.4009   11.4465   -0.7847 C   0  0  0  0  0  0  0  0  0  0  0  0
   28.9412   10.8672   -0.8935 C   0  0  2  0  0  0  0  0  0  0  0  0
   28.3475   11.1823   -2.2012 N   0  0  0  0  0  0  0  0  0  0  0  0
   28.0431   11.4735    0.2032 C   0  0  2  0  0  0  0  0  0  0  0  0
   28.6369   11.1677    1.6373 C   0  0  2  0  0  0  0  0  0  0  0  0
   27.7081   11.7785    2.6088 O   0  0  0  0  0  0  0  0  0  0  0  0
   30.1047   11.8275    1.7452 C   0  0  1  0  0  0  0  0  0  0  0  0
   30.6063   11.5544    3.0155 O   0  0  0  0  0  0  0  0  0  0  0  0
   27.5213   11.4222    3.8339 C   0  0  1  0  0  0  0  0  0  0  0  0
   28.3017   12.2432    4.9023 C   0  0  2  0  0  0  0  0  0  0  0  0
   29.5230   11.6120    5.1261 O   0  0  0  0  0  0  0  0  0  0  0  0
   27.3798   12.0601    6.0357 C   0  0  1  0  0  0  0  0  0  0  0  0
   25.9198   12.1307    5.4909 C   0  0  2  0  0  0  0  0  0  0  0  0
   26.1256   11.4497    4.2775 O   0  0  0  0  0  0  0  0  0  0  0  0
   25.2354   13.4972    5.4320 C   0  0  0  0  0  0  0  0  0  0  0  0
   26.1563   14.3751    4.8123 O   0  0  0  0  0  0  0  0  0  0  0  0
   27.9187   10.6732    7.9875 C   0  0  2  0  0  0  0  0  0  0  0  0
   27.7097   10.7287    6.6396 O   0  0  0  0  0  0  0  0  0  0  0  0
   28.0491    9.2622    8.4806 C   0  0  1  0  0  0  0  0  0  0  0  0
   25.9791   12.2777   12.5660 N   0  0  0  0  0  0  0  0  0  0  0  0
   35.9843   10.5750    0.3057 O   0  0  0  0  0  0  0  0  0  0  0  0
   28.2368    9.2708   10.0474 C   0  0  2  0  0  0  0  0  0  0  0  0
   27.0798    9.9983   10.8160 C   0  0  1  0  0  0  0  0  0  0  0  0
   26.9804   11.3551   10.3317 C   0  0  1  0  0  0  0  0  0  0  0  0
   26.7995   11.3746    8.8257 O   0  0  0  0  0  0  0  0  0  0  0  0
   25.7867   12.1201   11.0550 C   0  0  0  0  0  0  0  0  0  0  0  0
   26.8773    8.5372    8.1848 N   0  0  0  0  0  0  0  0  0  0  0  0
   23.4843    8.9625   -1.3010 O   0  0  0  0  0  0  0  0  0  0  0  0
   35.0438   12.2458   -0.9123 C   0  0  0  0  0  0  0  0  0  0  0  0
   26.0964    9.4505   10.5914 O   0  0  0  0  0  0  0  0  0  0  0  0
   29.2053    9.8425   10.2889 O   0  0  0  0  0  0  0  0  0  0  0  0
   33.5062   10.7906    0.1454 C   0  0  0  0  0  0  0  0  0  0  0  0
   36.1007   13.1168   -0.7698 C   0  0  0  0  0  0  0  0  0  0  0  0
   34.9372   11.5384    0.2118 C   0  0  1  0  0  0  0  0  0  0  0  0
   22.7538   11.4343   -1.9775 F   0  0  0  0  0  0  0  0  0  0  0  0
  1  2  1  6  0  0  0
  1 10  1  0  0  0  0
  1  3  1  0  0  0  0
  3  4  1  1  0  0  0
  3  6  1  0  0  0  0
  5 46  2  0  0  0  0
  6 42  1  1  0  0  0
  6  8  1  0  0  0  0
  7 47  1  0  0  0  0
  8  9  1  0  0  0  0
  8 49  1  1  0  0  0
  9 10  1  0  0  0  0
  9 11  1  6  0  0  0
 11 12  1  0  0  0  0
 13 14  1  6  0  0  0
 13 15  1  0  0  0  0
 13 21  1  0  0  0  0
 14 46  1  0  0  0  0
 15 16  1  0  0  0  0
 16 17  1  6  0  0  0
 16 18  1  0  0  0  0
 18  2  1  1  0  0  0
 18 19  1  0  0  0  0
 19 20  1  1  0  0  0
 19 21  1  0  0  0  0
 21 22  1  1  0  0  0
 23 20  1  6  0  0  0
 23 24  1  0  0  0  0
 23 28  1  0  0  0  0
 24 25  1  1  0  0  0
 24 26  1  0  0  0  0
 26 27  1  0  0  0  0
 26 32  1  6  0  0  0
 27 28  1  0  0  0  0
 27 29  1  6  0  0  0
 29 30  1  0  0  0  0
 31 32  1  6  0  0  0
 31 33  1  0  0  0  0
 31 39  1  0  0  0  0
 33 36  1  0  0  0  0
 33 41  1  1  0  0  0
 34 40  1  0  0  0  0
 35 48  1  0  0  0  0
 36 37  1  0  0  0  0
 36 45  1  6  0  0  0
 37 38  1  0  0  0  0
 37 44  1  6  0  0  0
 38 39  1  0  0  0  0
 38 40  1  1  0  0  0
 43 47  1  0  0  0  0
 46 48  1  0  0  0  0
 48 43  1  6  0  0  0
M  END
>  <CHROM.1>
-168.57657901,-148.66354940,58.13249717,-87.49110482,154.45083208,97.44689741
129.29200278,48.51993818,172.04614240,63.33750342,60.44523228,-73.44158280
-26.95503038,28.12445125,11.28502572,2.98522578,1.32076325,-0.01474494,-1.50560426

>  <Name>
ligand

>  <RI>
0

>  <Rbt.Current_Directory>
/home/itssahil/PROJECTS/Mol_Feturizer/New_Systems/rnas/4PDQ

>  <Rbt.Executable>
rbdock ($Id: //depot/dev/client3/rdock/2013.1/src/exe/rbdock.cxx#4 $)

>  <Rbt.Library>
libRbt.so (2013.1, Build901 2013/11/27)

>  <Rbt.Parameter_File>
/export/apps/rDock/src/rDock_2013.1_src/data/scripts/dock_solv.prm

>  <Rbt.Receptor>
prm/pocket_docking_3.prm

>  <SCORE>
-9.77538

>  <SCORE.INTER>
-7.77704

>  <SCORE.INTER.CONST>
1

>  <SCORE.INTER.POLAR>
0

>  <SCORE.INTER.ROT>
13

>  <SCORE.INTER.SOLV>
26.9946

>  <SCORE.INTER.VDW>
-26.4495

>  <SCORE.INTER.norm>
-0.158715

>  <SCORE.INTRA>
-2.55013

>  <SCORE.INTRA.DIHEDRAL>
-12.0393

>  <SCORE.INTRA.DIHEDRAL.0>
34.5115

>  <SCORE.INTRA.POLAR>
0

>  <SCORE.INTRA.POLAR.0>
0

>  <SCORE.INTRA.REPUL>
0

>  <SCORE.INTRA.REPUL.0>
0

>  <SCORE.INTRA.SOLV>
0.815835

>  <SCORE.INTRA.SOLV.lig_0>
-122.812

>  <SCORE.INTRA.VDW>
3.06158

>  <SCORE.INTRA.VDW.0>
-7.46208

>  <SCORE.INTRA.norm>
-0.0520435

>  <SCORE.RESTR>
0.551793

>  <SCORE.RESTR.CAVITY>
0.551793

>  <SCORE.RESTR.norm>
0.0112611

>  <SCORE.SYSTEM>
0

>  <SCORE.SYSTEM.CONST>
0

>  <SCORE.SYSTEM.DIHEDRAL>
0

>  <SCORE.SYSTEM.SOLV>
0

>  <SCORE.SYSTEM.norm>
0

>  <SCORE.heavy>
49

>  <SCORE.norm>
-0.199498

>  <RMSD>
2.003

$$$$
ligand
 OpenBabel11021811513D
libRbt.so/2013.1/901 2013/11/27
 49 52  0  0  0  0  0  0  0  0999 V2000
   26.8817   10.5384   -1.0379 C   0  0  2  0  0  0  0  0  0  0  0  0
   27.5641   10.9479    0.1105 O   0  0  0  0  0  0  0  0  0  0  0  0
   26.0375   11.7374   -1.6096 C   0  0  2  0  0  0  0  0  0  0  0  0
   26.9698   12.8947   -1.9315 N   0  0  0  0  0  0  0  0  0  0  0  0
   34.1599    9.2120    0.8248 O   0  0  0  0  0  0  0  0  0  0  0  0
   24.9449   12.1572   -0.5987 C   0  0  2  0  0  0  0  0  0  0  0  0
   38.1641    9.2121    0.8846 N   0  0  0  0  0  0  0  0  0  0  0  0
   24.0283   10.9672   -0.2743 C   0  0  2  0  0  0  0  0  0  0  0  0
   24.8460    9.7357    0.3041 C   0  0  2  0  0  0  0  0  0  0  0  0
   25.9457    9.3913   -0.7021 O   0  0  0  0  0  0  0  0  0  0  0  0
   23.9195    8.5157    0.5779 C   0  0  0  0  0  0  0  0  0  0  0  0
   24.5557    7.4586    1.2793 N   0  0  0  0  0  0  0  0  0  0  0  0
   31.8611   10.9929    0.6902 C   0  0  2  0  0  0  0  0  0  0  0  0
   33.2729   11.4742    0.6418 N   0  0  0  0  0  0  0  0  0  0  0  0
   31.2333   11.2322   -0.7675 C   0  0  0  0  0  0  0  0  0  0  0  0
   29.7431   10.7265   -0.8129 C   0  0  2  0  0  0  0  0  0  0  0  0
   29.1501   10.9588   -2.1382 N   0  0  0  0  0  0  0  0  0  0  0  0
   28.8935   11.4743    0.2340 C   0  0  2  0  0  0  0  0  0  0  0  0
   29.4888   11.2623    1.6844 C   0  0  2  0  0  0  0  0  0  0  0  0
   28.6071   12.0053    2.6063 O   0  0  0  0  0  0  0  0  0  0  0  0
   30.9913   11.8474    1.7218 C   0  0  1  0  0  0  0  0  0  0  0  0
   31.4941   11.6588    3.0068 O   0  0  0  0  0  0  0  0  0  0  0  0
   28.3243   11.6982    3.8264 C   0  0  1  0  0  0  0  0  0  0  0  0
   27.4493   12.7302    4.5970 C   0  0  2  0  0  0  0  0  0  0  0  0
   28.3009   13.6242    5.2415 O   0  0  0  0  0  0  0  0  0  0  0  0
   26.8092   11.8071    5.5490 C   0  0  1  0  0  0  0  0  0  0  0  0
   26.4825   10.4810    4.7952 C   0  0  2  0  0  0  0  0  0  0  0  0
   27.6376   10.4154    3.9953 O   0  0  0  0  0  0  0  0  0  0  0  0
   25.1269   10.3612    4.0974 C   0  0  0  0  0  0  0  0  0  0  0  0
   24.1503   10.6751    5.0723 O   0  0  0  0  0  0  0  0  0  0  0  0
   27.3001   11.1659    7.8666 C   0  0  2  0  0  0  0  0  0  0  0  0
   27.7840   11.6117    6.6705 O   0  0  0  0  0  0  0  0  0  0  0  0
   28.3857   11.0042    8.8895 C   0  0  1  0  0  0  0  0  0  0  0  0
   24.1421    7.9756    7.6878 N   0  0  0  0  0  0  0  0  0  0  0  0
   35.6937   12.5149    0.4642 O   0  0  0  0  0  0  0  0  0  0  0  0
   27.7654   10.4396   10.2261 C   0  0  2  0  0  0  0  0  0  0  0  0
   27.0018    9.0825   10.0415 C   0  0  1  0  0  0  0  0  0  0  0  0
   25.9573    9.2657    9.0612 C   0  0  1  0  0  0  0  0  0  0  0  0
   26.5284    9.8089    7.7651 O   0  0  0  0  0  0  0  0  0  0  0  0
   25.1822    7.8987    8.8091 C   0  0  0  0  0  0  0  0  0  0  0  0
   29.3479   10.0823    8.4306 N   0  0  0  0  0  0  0  0  0  0  0  0
   24.3208   13.0002   -1.0529 O   0  0  0  0  0  0  0  0  0  0  0  0
   36.4181   10.8293    1.8036 C   0  0  0  0  0  0  0  0  0  0  0  0
   27.7450    8.2998    9.6510 O   0  0  0  0  0  0  0  0  0  0  0  0
   26.9963   11.2020   10.6140 O   0  0  0  0  0  0  0  0  0  0  0  0
   34.3486   10.4328    0.7263 C   0  0  0  0  0  0  0  0  0  0  0  0
   37.0556    9.6158    1.6726 C   0  0  0  0  0  0  0  0  0  0  0  0
   35.8156   11.1060    0.6479 C   0  0  1  0  0  0  0  0  0  0  0  0
   23.3633   10.5435   -1.4385 F   0  0  0  0  0  0  0  0  0  0  0  0
  1  2  1  1  0  0  0
  1 10  1  0  0  0  0
  1  3  1  0  0  0  0
  3  4  1  1  0  0  0
  3  6  1  0  0  0  0
  5 46  2  0  0  0  0
  6 42  1  6  0  0  0
  6  8  1  0  0  0  0
  7 47  1  0  0  0  0
  8  9  1  0  0  0  0
  8 49  1  6  0  0  0
  9 10  1  0  0  0  0
  9 11  1  6  0  0  0
 11 12  1  0  0  0  0
 13 14  1  6  0  0  0
 13 15  1  0  0  0  0
 13 21  1  0  0  0  0
 14 46  1  0  0  0  0
 15 16  1  0  0  0  0
 16 17  1  6  0  0  0
 16 18  1  0  0  0  0
 18  2  1  1  0  0  0
 18 19  1  0  0  0  0
 19 20  1  1  0  0  0
 19 21  1  0  0  0  0
 21 22  1  1  0  0  0
 23 20  1  6  0  0  0
 23 24  1  0  0  0  0
 23 28  1  0  0  0  0
 24 25  1  1  0  0  0
 24 26  1  0  0  0  0
 26 27  1  0  0  0  0
 26 32  1  1  0  0  0
 27 28  1  0  0  0  0
 27 29  1  6  0  0  0
 29 30  1  0  0  0  0
 31 32  1  6  0  0  0
 31 33  1  0  0  0  0
 31 39  1  0  0  0  0
 33 36  1  0  0  0  0
 33 41  1  6  0  0  0
 34 40  1  0  0  0  0
 35 48  1  0  0  0  0
 36 37  1  0  0  0  0
 36 45  1  6  0  0  0
 37 38  1  0  0  0  0
 37 44  1  6  0  0  0
 38 39  1  0  0  0  0
 38 40  1  6  0  0  0
 43 47  1  0  0  0  0
 46 48  1  0  0  0  0
 48 43  1  1  0  0  0
M  END
>  <CHROM.1>
-92.82707786,-35.97432152,-171.08448625,-110.80277435,147.71696718,175.41198856
159.29002559,-52.98659436,179.45096364,-174.67331098,67.16017316,-152.44007530
176.76393396,28.49023195,10.69915760,3.06987987,0.82794818,-0.02779619,-1.46546477

>  <Name>
ligand

>  <RI>
0

>  <Rbt.Current_Directory>
/home/itssahil/PROJECTS/Mol_Feturizer/New_Systems/rnas/4PDQ

>  <Rbt.Executable>
rbdock ($Id: //depot/dev/client3/rdock/2013.1/src/exe/rbdock.cxx#4 $)

>  <Rbt.Library>
libRbt.so (2013.1, Build901 2013/11/27)

>  <Rbt.Parameter_File>
/export/apps/rDock/src/rDock_2013.1_src/data/scripts/dock_solv.prm

>  <Rbt.Receptor>
prm/pocket_docking_2.prm

>  <SCORE>
-7.71672

>  <SCORE.INTER>
-4.4017

>  <SCORE.INTER.CONST>
1

>  <SCORE.INTER.POLAR>
0

>  <SCORE.INTER.ROT>
13

>  <SCORE.INTER.SOLV>
30.6146

>  <SCORE.INTER.VDW>
-25.406

>  <SCORE.INTER.norm>
-0.0898305

>  <SCORE.INTRA>
-3.41351

>  <SCORE.INTRA.DIHEDRAL>
-15.2169

>  <SCORE.INTRA.DIHEDRAL.0>
34.5115

>  <SCORE.INTRA.POLAR>
0

>  <SCORE.INTRA.POLAR.0>
0

>  <SCORE.INTRA.REPUL>
0

>  <SCORE.INTRA.REPUL.0>
0

>  <SCORE.INTRA.SOLV>
0.947949

>  <SCORE.INTRA.SOLV.lig_0>
-122.812

>  <SCORE.INTRA.VDW>
3.72098

>  <SCORE.INTRA.VDW.0>
-7.46208

>  <SCORE.INTRA.norm>
-0.0696635

>  <SCORE.RESTR>
0.0984824

>  <SCORE.RESTR.CAVITY>
0.0984824

>  <SCORE.RESTR.norm>
0.00200985

>  <SCORE.SYSTEM>
0

>  <SCORE.SYSTEM.CONST>
0

>  <SCORE.SYSTEM.DIHEDRAL>
0

>  <SCORE.SYSTEM.SOLV>
0

>  <SCORE.SYSTEM.norm>
0

>  <SCORE.heavy>
49

>  <SCORE.norm>
-0.157484

>  <RMSD>
2.027

$$$$
ligand
 OpenBabel11021811513D
libRbt.so/2013.1/901 2013/11/27
 49 52  0  0  0  0  0  0  0  0999 V2000
   26.6195   10.8292    1.4959 C   0  0  2  0  0  0  0  0  0  0  0  0
   27.5946   11.5148    0.7671 O   0  0  0  0  0  0  0  0  0  0  0  0
   26.8848    9.2801    1.4114 C   0  0  2  0  0  0  0  0  0  0  0  0
   28.2688    8.9805    1.9656 N   0  0  0  0  0  0  0  0  0  0  0  0
   33.3831    8.0940    0.6139 O   0  0  0  0  0  0  0  0  0  0  0  0
   26.7425    8.7880   -0.0479 C   0  0  2  0  0  0  0  0  0  0  0  0
   38.1405    9.9783    2.0901 N   0  0  0  0  0  0  0  0  0  0  0  0
   25.3440    9.1195   -0.5919 C   0  0  2  0  0  0  0  0  0  0  0  0
   25.0390   10.6756   -0.5211 C   0  0  2  0  0  0  0  0  0  0  0  0
   25.2439   11.1264    0.9264 O   0  0  0  0  0  0  0  0  0  0  0  0
   23.6010   10.9971   -1.0216 C   0  0  0  0  0  0  0  0  0  0  0  0
   23.3397   10.5476   -2.3421 N   0  0  0  0  0  0  0  0  0  0  0  0
   31.6652   10.2465    1.5575 C   0  0  2  0  0  0  0  0  0  0  0  0
   33.1548   10.2959    1.6324 N   0  0  0  0  0  0  0  0  0  0  0  0
   31.2497   10.7938    0.1069 C   0  0  0  0  0  0  0  0  0  0  0  0
   29.6857   10.7528   -0.0677 C   0  0  2  0  0  0  0  0  0  0  0  0
   29.2908   11.2709   -1.3859 N   0  0  0  0  0  0  0  0  0  0  0  0
   29.0049   11.6153    1.0137 C   0  0  2  0  0  0  0  0  0  0  0  0
   29.3977   11.1041    2.4585 C   0  0  2  0  0  0  0  0  0  0  0  0
   28.6950   11.9831    3.4139 O   0  0  0  0  0  0  0  0  0  0  0  0
   30.9969   11.2179    2.6347 C   0  0  1  0  0  0  0  0  0  0  0  0
   31.3213   10.7714    3.9134 O   0  0  0  0  0  0  0  0  0  0  0  0
   28.1613   11.6400    4.5365 C   0  0  1  0  0  0  0  0  0  0  0  0
   27.1355   12.6484    5.1327 C   0  0  2  0  0  0  0  0  0  0  0  0
   27.8245   13.5234    5.9690 O   0  0  0  0  0  0  0  0  0  0  0  0
   26.3139   11.6973    5.8999 C   0  0  1  0  0  0  0  0  0  0  0  0
   26.1639   10.3938    5.0561 C   0  0  2  0  0  0  0  0  0  0  0  0
   27.4632   10.3524    4.5187 O   0  0  0  0  0  0  0  0  0  0  0  0
   24.9885   10.2939    4.0827 C   0  0  0  0  0  0  0  0  0  0  0  0
   23.8171   10.4712    4.8566 O   0  0  0  0  0  0  0  0  0  0  0  0
   26.6233   10.4237    7.9749 C   0  0  2  0  0  0  0  0  0  0  0  0
   27.0293   11.4694    7.1970 O   0  0  0  0  0  0  0  0  0  0  0  0
   25.1607   10.4976    8.3010 C   0  0  1  0  0  0  0  0  0  0  0  0
   27.6834    7.8947   12.4213 N   0  0  0  0  0  0  0  0  0  0  0  0
   36.1144    9.1988   -0.0344 O   0  0  0  0  0  0  0  0  0  0  0  0
   24.7726    9.2911    9.2411 C   0  0  2  0  0  0  0  0  0  0  0  0
   25.6106    9.2298   10.5650 C   0  0  1  0  0  0  0  0  0  0  0  0
   27.0119    9.1493   10.2256 C   0  0  1  0  0  0  0  0  0  0  0  0
   27.4110   10.2996    9.3208 O   0  0  0  0  0  0  0  0  0  0  0  0
   27.9052    9.1292   11.5427 C   0  0  0  0  0  0  0  0  0  0  0  0
   24.8794   11.6954    8.9886 N   0  0  0  0  0  0  0  0  0  0  0  0
   26.8991    7.6563   -0.0766 O   0  0  0  0  0  0  0  0  0  0  0  0
   35.6745   10.5357    1.7486 C   0  0  0  0  0  0  0  0  0  0  0  0
   25.4259   10.1972   11.1547 O   0  0  0  0  0  0  0  0  0  0  0  0
   24.9801    8.3129    8.6724 O   0  0  0  0  0  0  0  0  0  0  0  0
   33.9010    9.1055    1.1081 C   0  0  0  0  0  0  0  0  0  0  0  0
   37.0263   10.7964    1.7703 C   0  0  0  0  0  0  0  0  0  0  0  0
   35.4975    9.3144    1.2460 C   0  0  1  0  0  0  0  0  0  0  0  0
   24.3653    8.4466    0.1609 F   0  0  0  0  0  0  0  0  0  0  0  0
  1  2  1  6  0  0  0
  1 10  1  0  0  0  0
  1  3  1  0  0  0  0
  3  4  1  6  0  0  0
  3  6  1  0  0  0  0
  5 46  2  0  0  0  0
  6 42  1  1  0  0  0
  6  8  1  0  0  0  0
  7 47  1  0  0  0  0
  8  9  1  0  0  0  0
  8 49  1  1  0  0  0
  9 10  1  0  0  0  0
  9 11  1  1  0  0  0
 11 12  1  0  0  0  0
 13 14  1  6  0  0  0
 13 15  1  0  0  0  0
 13 21  1  0  0  0  0
 14 46  1  0  0  0  0
 15 16  1  0  0  0  0
 16 17  1  6  0  0  0
 16 18  1  0  0  0  0
 18  2  1  6  0  0  0
 18 19  1  0  0  0  0
 19 20  1  1  0  0  0
 19 21  1  0  0  0  0
 21 22  1  1  0  0  0
 23 20  1  6  0  0  0
 23 24  1  0  0  0  0
 23 28  1  0  0  0  0
 24 25  1  1  0  0  0
 24 26  1  0  0  0  0
 26 27  1  0  0  0  0
 26 32  1  1  0  0  0
 27 28  1  0  0  0  0
 27 29  1  6  0  0  0
 29 30  1  0  0  0  0
 31 32  1  1  0  0  0
 31 33  1  0  0  0  0
 31 39  1  0  0  0  0
 33 36  1  0  0  0  0
 33 41  1  1  0  0  0
 34 40  1  0  0  0  0
 35 48  1  0  0  0  0
 36 37  1  0  0  0  0
 36 45  1  6  0  0  0
 37 38  1  0  0  0  0
 37 44  1  1  0  0  0
 38 39  1  0  0  0  0
 38 40  1  1  0  0  0
 43 47  1  0  0  0  0
 46 48  1  0  0  0  0
 48 43  1  6  0  0  0
M  END
>  <CHROM.1>
-65.74148192,107.67928060,-56.94437930,-86.71310604,142.66960429,-162.43047082
-166.79487789,-57.60145854,-55.78583901,64.26297243,-39.79307262,-55.33744736
56.60478033,28.34115424,10.26852438,3.70997268,0.87668186,0.02389103,-1.55082276

>  <Name>
ligand

>  <RI>
0

>  <Rbt.Current_Directory>
/home/itssahil/PROJECTS/Mol_Feturizer/New_Systems/rnas/4PDQ

>  <Rbt.Executable>
rbdock ($Id: //depot/dev/client3/rdock/2013.1/src/exe/rbdock.cxx#4 $)

>  <Rbt.Library>
libRbt.so (2013.1, Build901 2013/11/27)

>  <Rbt.Parameter_File>
/export/apps/rDock/src/rDock_2013.1_src/data/scripts/dock_solv.prm

>  <Rbt.Receptor>
prm/pocket_docking_2.prm

>  <SCORE>
8.00174

>  <SCORE.INTER>
2.05357

>  <SCORE.INTER.CONST>
1

>  <SCORE.INTER.POLAR>
0

>  <SCORE.INTER.ROT>
13

>  <SCORE.INTER.SOLV>
23.3735

>  <SCORE.INTER.VDW>
-18.6888

>  <SCORE.INTER.norm>
0.0419095

>  <SCORE.INTRA>
3.34586

>  <SCORE.INTRA.DIHEDRAL>
-15.9922

>  <SCORE.INTRA.DIHEDRAL.0>
34.5115

>  <SCORE.INTRA.POLAR>
0

>  <SCORE.INTRA.POLAR.0>
0

>  <SCORE.INTRA.REPUL>
0

>  <SCORE.INTRA.REPUL.0>
0

>  <SCORE.INTRA.SOLV>
5.14987

>  <SCORE.INTRA.SOLV.lig_0>
-122.812

>  <SCORE.INTRA.VDW>
8.76702

>  <SCORE.INTRA.VDW.0>
-7.46208

>  <SCORE.INTRA.norm>
0.0682829

>  <SCORE.RESTR>
2.60232

>  <SCORE.RESTR.CAVITY>
2.60232

>  <SCORE.RESTR.norm>
0.0531085

>  <SCORE.SYSTEM>
0

>  <SCORE.SYSTEM.CONST>
0

>  <SCORE.SYSTEM.DIHEDRAL>
0

>  <SCORE.SYSTEM.SOLV>
0

>  <SCORE.SYSTEM.norm>
0

>  <SCORE.heavy>
49

>  <SCORE.norm>
0.163301

>  <RMSD>
2.129

$$$$
ligand
 OpenBabel11021811513D
libRbt.so/2013.1/901 2013/11/27
 49 52  0  0  0  0  0  0  0  0999 V2000
   27.4801   10.9675    1.5453 C   0  0  2  0  0  0  0  0  0  0  0  0
   28.4682   10.0989    1.0750 O   0  0  0  0  0  0  0  0  0  0  0  0
   26.1541   10.1649    1.8189 C   0  0  2  0  0  0  0  0  0  0  0  0
   26.4331    9.0756    2.8426 N   0  0  0  0  0  0  0  0  0  0  0  0
   34.1355   11.2859    1.3890 O   0  0  0  0  0  0  0  0  0  0  0  0
   25.6011    9.5730    0.5014 C   0  0  2  0  0  0  0  0  0  0  0  0
   39.1559   10.3244    0.6738 N   0  0  0  0  0  0  0  0  0  0  0  0
   25.3461   10.6897   -0.5231 C   0  0  2  0  0  0  0  0  0  0  0  0
   26.6628   11.5238   -0.8237 C   0  0  2  0  0  0  0  0  0  0  0  0
   27.2017   12.0430    0.5106 O   0  0  0  0  0  0  0  0  0  0  0  0
   26.3846   12.6871   -1.8192 C   0  0  0  0  0  0  0  0  0  0  0  0
   25.2497   13.4701   -1.4834 N   0  0  0  0  0  0  0  0  0  0  0  0
   32.5426    8.9216    1.9784 C   0  0  2  0  0  0  0  0  0  0  0  0
   34.0346    8.9169    1.9510 N   0  0  0  0  0  0  0  0  0  0  0  0
   32.0454    9.0333    0.4563 C   0  0  0  0  0  0  0  0  0  0  0  0
   30.4726    9.0202    0.3904 C   0  0  2  0  0  0  0  0  0  0  0  0
   30.0043    9.1423   -0.9981 N   0  0  0  0  0  0  0  0  0  0  0  0
   29.8944   10.1978    1.2002 C   0  0  2  0  0  0  0  0  0  0  0  0
   30.3697   10.1200    2.7072 C   0  0  2  0  0  0  0  0  0  0  0  0
   29.7614   11.2770    3.3933 O   0  0  0  0  0  0  0  0  0  0  0  0
   31.9799   10.2012    2.7509 C   0  0  1  0  0  0  0  0  0  0  0  0
   32.3774   10.1392    4.0842 O   0  0  0  0  0  0  0  0  0  0  0  0
   29.3466   11.3260    4.6133 C   0  0  1  0  0  0  0  0  0  0  0  0
   29.9121   12.4950    5.4725 C   0  0  2  0  0  0  0  0  0  0  0  0
   31.0687   12.0467    6.1058 O   0  0  0  0  0  0  0  0  0  0  0  0
   28.7927   12.6326    6.4191 C   0  0  1  0  0  0  0  0  0  0  0  0
   27.4618   12.4332    5.6303 C   0  0  2  0  0  0  0  0  0  0  0  0
   27.8922   11.4099    4.7665 O   0  0  0  0  0  0  0  0  0  0  0  0
   26.8020   13.6621    5.0031 C   0  0  0  0  0  0  0  0  0  0  0  0
   25.6552   13.1912    4.3206 O   0  0  0  0  0  0  0  0  0  0  0  0
   27.9914   10.7025    7.7059 C   0  0  2  0  0  0  0  0  0  0  0  0
   29.0017   11.5915    7.4767 O   0  0  0  0  0  0  0  0  0  0  0  0
   26.7662   11.3706    8.2569 C   0  0  1  0  0  0  0  0  0  0  0  0
   26.7710    6.3965   10.4045 N   0  0  0  0  0  0  0  0  0  0  0  0
   36.7090    8.9693    0.8062 O   0  0  0  0  0  0  0  0  0  0  0  0
   25.6612   10.2814    8.5450 C   0  0  2  0  0  0  0  0  0  0  0  0
   26.1336    9.1483    9.5205 C   0  0  1  0  0  0  0  0  0  0  0  0
   27.3063    8.5146    8.9648 C   0  0  1  0  0  0  0  0  0  0  0  0
   28.3851    9.5417    8.6780 O   0  0  0  0  0  0  0  0  0  0  0  0
   27.8477    7.3840    9.9454 C   0  0  0  0  0  0  0  0  0  0  0  0
   27.0728   12.0143    9.4726 N   0  0  0  0  0  0  0  0  0  0  0  0
   24.6189    9.0309    0.7196 O   0  0  0  0  0  0  0  0  0  0  0  0
   36.8199   11.2034    1.2020 C   0  0  0  0  0  0  0  0  0  0  0  0
   26.4116    9.6289   10.5251 O   0  0  0  0  0  0  0  0  0  0  0  0
   25.3934    9.7710    7.5496 O   0  0  0  0  0  0  0  0  0  0  0  0
   34.7120   10.2150    1.6268 C   0  0  0  0  0  0  0  0  0  0  0  0
   38.1911   11.1446    1.3135 C   0  0  0  0  0  0  0  0  0  0  0  0
   36.3196   10.0520    1.6485 C   0  0  1  0  0  0  0  0  0  0  0  0
   24.3691   11.5747   -0.0337 F   0  0  0  0  0  0  0  0  0  0  0  0
  1  2  1  6  0  0  0
  1 10  1  0  0  0  0
  1  3  1  0  0  0  0
  3  4  1  1  0  0  0
  3  6  1  0  0  0  0
  5 46  2  0  0  0  0
  6 42  1  1  0  0  0
  6  8  1  0  0  0  0
  7 47  1  0  0  0  0
  8  9  1  0  0  0  0
  8 49  1  1  0  0  0
  9 10  1  0  0  0  0
  9 11  1  6  0  0  0
 11 12  1  0  0  0  0
 13 14  1  6  0  0  0
 13 15  1  0  0  0  0
 13 21  1  0  0  0  0
 14 46  1  0  0  0  0
 15 16  1  0  0  0  0
 16 17  1  6  0  0  0
 16 18  1  0  0  0  0
 18  2  1  1  0  0  0
 18 19  1  0  0  0  0
 19 20  1  1  0  0  0
 19 21  1  0  0  0  0
 21 22  1  1  0  0  0
 23 20  1  6  0  0  0
 23 24  1  0  0  0  0
 23 28  1  0  0  0  0
 24 25  1  1  0  0  0
 24 26  1  0  0  0  0
 26 27  1  0  0  0  0
 26 32  1  1  0  0  0
 27 28  1  0  0  0  0
 27 29  1  6  0  0  0
 29 30  1  0  0  0  0
 31 32  1  1  0  0  0
 31 33  1  0  0  0  0
 31 39  1  0  0  0  0
 33 36  1  0  0  0  0
 33 41  1  1  0  0  0
 34 40  1  0  0  0  0
 35 48  1  0  0  0  0
 36 37  1  0  0  0  0
 36 45  1  6  0  0  0
 37 38  1  0  0  0  0
 37 44  1  1  0  0  0
 38 39  1  0  0  0  0
 38 40  1  1  0  0  0
 43 47  1  0  0  0  0
 46 48  1  0  0  0  0
 48 43  1  6  0  0  0
M  END
>  <CHROM.1>
-151.90007486,-175.45484138,48.33566803,72.40474241,145.79623408,127.11316080
-124.27355879,178.01230789,-65.48289055,50.50297575,65.06227605,-65.63363308
-127.92912435,29.24954193,10.55899897,3.67986589,2.46339323,-0.09847217,1.69592273

>  <Name>
ligand

>  <RI>
0

>  <Rbt.Current_Directory>
/home/itssahil/PROJECTS/Mol_Feturizer/New_Systems/rnas/4PDQ

>  <Rbt.Executable>
rbdock ($Id: //depot/dev/client3/rdock/2013.1/src/exe/rbdock.cxx#4 $)

>  <Rbt.Library>
libRbt.so (2013.1, Build901 2013/11/27)

>  <Rbt.Parameter_File>
/export/apps/rDock/src/rDock_2013.1_src/data/scripts/dock_solv.prm

>  <Rbt.Receptor>
prm/pocket_docking_2.prm

>  <SCORE>
8.63243

>  <SCORE.INTER>
3.40613

>  <SCORE.INTER.CONST>
1

>  <SCORE.INTER.POLAR>
0

>  <SCORE.INTER.ROT>
13

>  <SCORE.INTER.SOLV>
16.048

>  <SCORE.INTER.VDW>
-15.3453

>  <SCORE.INTER.norm>
0.069513

>  <SCORE.INTRA>
1.27182

>  <SCORE.INTRA.DIHEDRAL>
-10.5355

>  <SCORE.INTRA.DIHEDRAL.0>
34.5115

>  <SCORE.INTRA.POLAR>
0

>  <SCORE.INTRA.POLAR.0>
0

>  <SCORE.INTRA.REPUL>
0

>  <SCORE.INTRA.REPUL.0>
0

>  <SCORE.INTRA.SOLV>
1.98582

>  <SCORE.INTRA.SOLV.lig_0>
-122.812

>  <SCORE.INTRA.VDW>
5.54667

>  <SCORE.INTRA.VDW.0>
-7.46208

>  <SCORE.INTRA.norm>
0.0259556

>  <SCORE.RESTR>
3.95448

>  <SCORE.RESTR.CAVITY>
3.95448

>  <SCORE.RESTR.norm>
0.0807036

>  <SCORE.SYSTEM>
0

>  <SCORE.SYSTEM.CONST>
0

>  <SCORE.SYSTEM.DIHEDRAL>
0

>  <SCORE.SYSTEM.SOLV>
0

>  <SCORE.SYSTEM.norm>
0

>  <SCORE.heavy>
49

>  <SCORE.norm>
0.176172

>  <RMSD>
2.168

$$$$
ligand
 OpenBabel11021811513D
libRbt.so/2013.1/901 2013/11/27
 49 52  0  0  0  0  0  0  0  0999 V2000
   27.2839   10.2177   -0.5130 C   0  0  2  0  0  0  0  0  0  0  0  0
   27.8216   11.3374    0.1265 O   0  0  0  0  0  0  0  0  0  0  0  0
   25.8809   10.5800   -1.1275 C   0  0  2  0  0  0  0  0  0  0  0  0
   26.0497   11.7240   -2.1149 N   0  0  0  0  0  0  0  0  0  0  0  0
   33.9329    8.6253    0.4960 O   0  0  0  0  0  0  0  0  0  0  0  0
   24.8799   10.9450   -0.0065 C   0  0  2  0  0  0  0  0  0  0  0  0
   38.6326   10.9843    0.8963 N   0  0  0  0  0  0  0  0  0  0  0  0
   24.7414    9.7823    0.9887 C   0  0  2  0  0  0  0  0  0  0  0  0
   26.1389    9.3865    1.6289 C   0  0  2  0  0  0  0  0  0  0  0  0
   27.1088    9.0867    0.4845 O   0  0  0  0  0  0  0  0  0  0  0  0
   25.9999    8.1729    2.5930 C   0  0  0  0  0  0  0  0  0  0  0  0
   24.9695    8.3217    3.5574 N   0  0  0  0  0  0  0  0  0  0  0  0
   31.8799   10.4841    1.3933 C   0  0  2  0  0  0  0  0  0  0  0  0
   33.3361   10.6874    1.6491 N   0  0  0  0  0  0  0  0  0  0  0  0
   31.5853   11.0177   -0.0916 C   0  0  0  0  0  0  0  0  0  0  0  0
   30.0668   10.8173   -0.4554 C   0  0  2  0  0  0  0  0  0  0  0  0
   29.7799   11.3210   -1.8067 N   0  0  0  0  0  0  0  0  0  0  0  0
   29.1734   11.5792    0.5437 C   0  0  2  0  0  0  0  0  0  0  0  0
   29.4425   11.0794    2.0204 C   0  0  2  0  0  0  0  0  0  0  0  0
   28.5407   11.8583    2.8918 O   0  0  0  0  0  0  0  0  0  0  0  0
   30.9878   11.3557    2.3907 C   0  0  1  0  0  0  0  0  0  0  0  0
   31.2023   10.9168    3.6950 O   0  0  0  0  0  0  0  0  0  0  0  0
   28.2767   11.6342    4.1340 C   0  0  1  0  0  0  0  0  0  0  0  0
   27.6593   12.8287    4.9193 C   0  0  2  0  0  0  0  0  0  0  0  0
   28.7008   13.5563    5.4899 O   0  0  0  0  0  0  0  0  0  0  0  0
   26.9129   12.0630    5.9315 C   0  0  1  0  0  0  0  0  0  0  0  0
   26.2978   10.8092    5.2365 C   0  0  2  0  0  0  0  0  0  0  0  0
   27.3709   10.5093    4.3780 O   0  0  0  0  0  0  0  0  0  0  0  0
   24.9055   10.9364    4.6165 C   0  0  0  0  0  0  0  0  0  0  0  0
   23.9891   10.9252    5.6947 O   0  0  0  0  0  0  0  0  0  0  0  0
   27.4067   11.2696    8.2009 C   0  0  2  0  0  0  0  0  0  0  0  0
   27.8971   11.7070    7.0044 O   0  0  0  0  0  0  0  0  0  0  0  0
   28.4879   10.7306    9.0907 C   0  0  1  0  0  0  0  0  0  0  0  0
   25.0795    7.3801    8.2186 N   0  0  0  0  0  0  0  0  0  0  0  0
   36.6619    8.9370    1.0671 O   0  0  0  0  0  0  0  0  0  0  0  0
   27.8460   10.1978   10.4301 C   0  0  2  0  0  0  0  0  0  0  0  0
   26.7446    9.1039   10.2087 C   0  0  1  0  0  0  0  0  0  0  0  0
   25.7119    9.6484    9.3588 C   0  0  1  0  0  0  0  0  0  0  0  0
   26.3038   10.1687    8.0626 O   0  0  0  0  0  0  0  0  0  0  0  0
   24.5917    8.5552    9.0707 C   0  0  0  0  0  0  0  0  0  0  0  0
   29.1399    9.6524    8.4593 N   0  0  0  0  0  0  0  0  0  0  0  0
   23.8602   11.1639   -0.4740 O   0  0  0  0  0  0  0  0  0  0  0  0
   36.0870   11.1175    0.7930 C   0  0  0  0  0  0  0  0  0  0  0  0
   27.2273    8.2071    9.6792 O   0  0  0  0  0  0  0  0  0  0  0  0
   27.3331   11.0819   10.9579 O   0  0  0  0  0  0  0  0  0  0  0  0
   34.2705    9.6376    1.1261 C   0  0  0  0  0  0  0  0  0  0  0  0
   37.3493   11.5307    1.1561 C   0  0  0  0  0  0  0  0  0  0  0  0
   35.8063   10.0045    1.4696 C   0  0  1  0  0  0  0  0  0  0  0  0
   24.2233    8.6507    0.3341 F   0  0  0  0  0  0  0  0  0  0  0  0
  1  2  1  1  0  0  0
  1 10  1  0  0  0  0
  1  3  1  0  0  0  0
  3  4  1  6  0  0  0
  3  6  1  0  0  0  0
  5 46  2  0  0  0  0
  6 42  1  6  0  0  0
  6  8  1  0  0  0  0
  7 47  1  0  0  0  0
  8  9  1  0  0  0  0
  8 49  1  6  0  0  0
  9 10  1  0  0  0  0
  9 11  1  1  0  0  0
 11 12  1  0  0  0  0
 13 14  1  1  0  0  0
 13 15  1  0  0  0  0
 13 21  1  0  0  0  0
 14 46  1  0  0  0  0
 15 16  1  0  0  0  0
 16 17  1  6  0  0  0
 16 18  1  0  0  0  0
 18  2  1  6  0  0  0
 18 19  1  0  0  0  0
 19 20  1  1  0  0  0
 19 21  1  0  0  0  0
 21 22  1  1  0  0  0
 23 20  1  6  0  0  0
 23 24  1  0  0  0  0
 23 28  1  0  0  0  0
 24 25  1  1  0  0  0
 24 26  1  0  0  0  0
 26 27  1  0  0  0  0
 26 32  1  1  0  0  0
 27 28  1  0  0  0  0
 27 29  1  6  0  0  0
 29 30  1  0  0  0  0
 31 32  1  6  0  0  0
 31 33  1  0  0  0  0
 31 39  1  0  0  0  0
 33 36  1  0  0  0  0
 33 41  1  6  0  0  0
 34 40  1  0  0  0  0
 35 48  1  0  0  0  0
 36 37  1  0  0  0  0
 36 45  1  6  0  0  0
 37 38  1  0  0  0  0
 37 44  1  6  0  0  0
 38 39  1  0  0  0  0
 38 40  1  6  0  0  0
 43 47  1  0  0  0  0
 46 48  1  0  0  0  0
 48 43  1  6  0  0  0
M  END
>  <CHROM.1>
-163.78839918,30.57973269,-50.71383238,-82.72269346,168.25335279,161.82146289
165.03279135,-75.62493183,170.22915905,-67.25073409,69.86180580,-66.02527826
-5.99205221,28.64424997,10.44145407,3.55319800,0.76106210,-0.03943967,-1.52949858

>  <Name>
ligand

>  <RI>
0

>  <Rbt.Current_Directory>
/home/itssahil/PROJECTS/Mol_Feturizer/New_Systems/rnas/4PDQ

>  <Rbt.Executable>
rbdock ($Id: //depot/dev/client3/rdock/2013.1/src/exe/rbdock.cxx#4 $)

>  <Rbt.Library>
libRbt.so (2013.1, Build901 2013/11/27)

>  <Rbt.Parameter_File>
/export/apps/rDock/src/rDock_2013.1_src/data/scripts/dock_solv.prm

>  <Rbt.Receptor>
prm/pocket_docking_2.prm

>  <SCORE>
-6.87788

>  <SCORE.INTER>
0.13687

>  <SCORE.INTER.CONST>
1

>  <SCORE.INTER.POLAR>
0

>  <SCORE.INTER.ROT>
13

>  <SCORE.INTER.SOLV>
21.156

>  <SCORE.INTER.VDW>
-19.2274

>  <SCORE.INTER.norm>
0.00279326

>  <SCORE.INTRA>
-7.38302

>  <SCORE.INTRA.DIHEDRAL>
-22.9956

>  <SCORE.INTRA.DIHEDRAL.0>
34.5115

>  <SCORE.INTRA.POLAR>
0

>  <SCORE.INTRA.POLAR.0>
0

>  <SCORE.INTRA.REPUL>
0

>  <SCORE.INTRA.REPUL.0>
0

>  <SCORE.INTRA.SOLV>
3.74885

>  <SCORE.INTRA.SOLV.lig_0>
-122.812

>  <SCORE.INTRA.VDW>
2.24037

>  <SCORE.INTRA.VDW.0>
-7.46208

>  <SCORE.INTRA.norm>
-0.150674

>  <SCORE.RESTR>
0.368272

>  <SCORE.RESTR.CAVITY>
0.368272

>  <SCORE.RESTR.norm>
0.00751576

>  <SCORE.SYSTEM>
0

>  <SCORE.SYSTEM.CONST>
0

>  <SCORE.SYSTEM.DIHEDRAL>
0

>  <SCORE.SYSTEM.SOLV>
0

>  <SCORE.SYSTEM.norm>
0

>  <SCORE.heavy>
49

>  <SCORE.norm>
-0.140365

>  <RMSD>
2.189

$$$$
ligand
 OpenBabel11021811513D
libRbt.so/2013.1/901 2013/11/27
 49 52  0  0  0  0  0  0  0  0999 V2000
   27.0598    9.7675   -0.0623 C   0  0  2  0  0  0  0  0  0  0  0  0
   27.5456   11.0299    0.2877 O   0  0  0  0  0  0  0  0  0  0  0  0
   25.6194    9.9058   -0.6814 C   0  0  2  0  0  0  0  0  0  0  0  0
   25.6873   10.8056   -1.9054 N   0  0  0  0  0  0  0  0  0  0  0  0
   34.1053    9.1320    1.2719 O   0  0  0  0  0  0  0  0  0  0  0  0
   24.6313   10.4594    0.3717 C   0  0  2  0  0  0  0  0  0  0  0  0
   39.0740   10.0385    1.8864 N   0  0  0  0  0  0  0  0  0  0  0  0
   24.5950    9.5448    1.6062 C   0  0  2  0  0  0  0  0  0  0  0  0
   26.0328    9.3795    2.2581 C   0  0  2  0  0  0  0  0  0  0  0  0
   26.9852    8.8824    1.1689 O   0  0  0  0  0  0  0  0  0  0  0  0
   25.9983    8.4084    3.4736 C   0  0  0  0  0  0  0  0  0  0  0  0
   25.6691    7.0714    3.1303 N   0  0  0  0  0  0  0  0  0  0  0  0
   31.8671   10.8706    0.6067 C   0  0  2  0  0  0  0  0  0  0  0  0
   33.2939   11.2907    0.4848 N   0  0  0  0  0  0  0  0  0  0  0  0
   31.1652   11.1775   -0.8039 C   0  0  0  0  0  0  0  0  0  0  0  0
   29.6536   10.7391   -0.7715 C   0  0  2  0  0  0  0  0  0  0  0  0
   28.9940   11.0339   -2.0521 N   0  0  0  0  0  0  0  0  0  0  0  0
   28.9025   11.4939    0.3435 C   0  0  2  0  0  0  0  0  0  0  0  0
   29.5728   11.2158    1.7493 C   0  0  2  0  0  0  0  0  0  0  0  0
   28.7822   11.9708    2.7414 O   0  0  0  0  0  0  0  0  0  0  0  0
   31.0999   11.7333    1.7102 C   0  0  1  0  0  0  0  0  0  0  0  0
   31.6692   11.4872    2.9572 O   0  0  0  0  0  0  0  0  0  0  0  0
   28.5925   11.6634    3.9793 C   0  0  1  0  0  0  0  0  0  0  0  0
   28.4024   12.8645    4.9519 C   0  0  2  0  0  0  0  0  0  0  0  0
   29.6533   13.2198    5.4506 O   0  0  0  0  0  0  0  0  0  0  0  0
   27.5814   12.1920    5.9726 C   0  0  1  0  0  0  0  0  0  0  0  0
   26.5841   11.2392    5.2439 C   0  0  2  0  0  0  0  0  0  0  0  0
   27.4451   10.7873    4.2276 O   0  0  0  0  0  0  0  0  0  0  0  0
   25.2236   11.7991    4.8261 C   0  0  0  0  0  0  0  0  0  0  0  0
   24.3935   10.6799    4.5789 O   0  0  0  0  0  0  0  0  0  0  0  0
   28.0712   11.0294    8.0778 C   0  0  2  0  0  0  0  0  0  0  0  0
   28.5344   11.4594    6.8678 O   0  0  0  0  0  0  0  0  0  0  0  0
   28.9780   10.0079    8.6985 C   0  0  1  0  0  0  0  0  0  0  0  0
   24.4952    8.2291    8.1099 N   0  0  0  0  0  0  0  0  0  0  0  0
   35.7838   12.3032    0.7114 O   0  0  0  0  0  0  0  0  0  0  0  0
   28.3580    9.5192   10.0648 C   0  0  2  0  0  0  0  0  0  0  0  0
   26.9111    8.9312    9.9248 C   0  0  1  0  0  0  0  0  0  0  0  0
   26.0559    9.9345    9.3352 C   0  0  1  0  0  0  0  0  0  0  0  0
   26.6308   10.4219    8.0187 O   0  0  0  0  0  0  0  0  0  0  0  0
   24.5836    9.3647    9.1334 C   0  0  0  0  0  0  0  0  0  0  0  0
   29.0990    8.8900    7.8487 N   0  0  0  0  0  0  0  0  0  0  0  0
   23.5865   10.5120   -0.0886 O   0  0  0  0  0  0  0  0  0  0  0  0
   36.5570   10.3967    1.6742 C   0  0  0  0  0  0  0  0  0  0  0  0
   26.9562    8.0230    9.2244 O   0  0  0  0  0  0  0  0  0  0  0  0
   28.2800   10.4265   10.7675 O   0  0  0  0  0  0  0  0  0  0  0  0
   34.3342   10.2817    0.8702 C   0  0  0  0  0  0  0  0  0  0  0  0
   37.8832   10.6162    1.3755 C   0  0  0  0  0  0  0  0  0  0  0  0
   35.8229   10.8783    0.6720 C   0  0  1  0  0  0  0  0  0  0  0  0
   24.1292    8.2686    1.2434 F   0  0  0  0  0  0  0  0  0  0  0  0
  1  2  1  1  0  0  0
  1 10  1  0  0  0  0
  1  3  1  0  0  0  0
  3  4  1  6  0  0  0
  3  6  1  0  0  0  0
  5 46  2  0  0  0  0
  6 42  1  6  0  0  0
  6  8  1  0  0  0  0
  7 47  1  0  0  0  0
  8  9  1  0  0  0  0
  8 49  1  6  0  0  0
  9 10  1  0  0  0  0
  9 11  1  1  0  0  0
 11 12  1  0  0  0  0
 13 14  1  6  0  0  0
 13 15  1  0  0  0  0
 13 21  1  0  0  0  0
 14 46  1  0  0  0  0
 15 16  1  0  0  0  0
 16 17  1  6  0  0  0
 16 18  1  0  0  0  0
 18  2  1  1  0  0  0
 18 19  1  0  0  0  0
 19 20  1  1  0  0  0
 19 21  1  0  0  0  0
 21 22  1  1  0  0  0
 23 20  1  6  0  0  0
 23 24  1  0  0  0  0
 23 28  1  0  0  0  0
 24 25  1  1  0  0  0
 24 26  1  0  0  0  0
 26 27  1  0  0  0  0
 26 32  1  1  0  0  0
 27 28  1  0  0  0  0
 27 29  1  6  0  0  0
 29 30  1  0  0  0  0
 31 32  1  6  0  0  0
 31 33  1  0  0  0  0
 31 39  1  0  0  0  0
 33 36  1  0  0  0  0
 33 41  1  6  0  0  0
 34 40  1  0  0  0  0
 35 48  1  0  0  0  0
 36 37  1  0  0  0  0
 36 45  1  1  0  0  0
 37 38  1  0  0  0  0
 37 44  1  6  0  0  0
 38 39  1  0  0  0  0
 38 40  1  6  0  0  0
 43 47  1  0  0  0  0
 46 48  1  0  0  0  0
 48 43  1  1  0  0  0
M  END
>  <CHROM.1>
-151.07248751,32.84737495,65.05179082,-128.04220542,150.00636458,149.28112688
164.06297632,-162.60393422,164.26456299,-65.90983098,-161.81727966,-74.52687815
-157.68262196,28.75386447,10.42666589,3.51248435,0.67365096,-0.10372365,-1.52690008

>  <Name>
ligand

>  <RI>
0

>  <Rbt.Current_Directory>
/home/itssahil/PROJECTS/Mol_Feturizer/New_Systems/rnas/4PDQ

>  <Rbt.Executable>
rbdock ($Id: //depot/dev/client3/rdock/2013.1/src/exe/rbdock.cxx#4 $)

>  <Rbt.Library>
libRbt.so (2013.1, Build901 2013/11/27)

>  <Rbt.Parameter_File>
/export/apps/rDock/src/rDock_2013.1_src/data/scripts/dock_solv.prm

>  <Rbt.Receptor>
prm/pocket_docking_2.prm

>  <SCORE>
0.503426

>  <SCORE.INTER>
2.19752

>  <SCORE.INTER.CONST>
1

>  <SCORE.INTER.POLAR>
0

>  <SCORE.INTER.ROT>
13

>  <SCORE.INTER.SOLV>
26.2717

>  <SCORE.INTER.VDW>
-19.5589

>  <SCORE.INTER.norm>
0.0448473

>  <SCORE.INTRA>
-3.02284

>  <SCORE.INTRA.DIHEDRAL>
-12.1541

>  <SCORE.INTRA.DIHEDRAL.0>
34.5115

>  <SCORE.INTRA.POLAR>
0

>  <SCORE.INTRA.POLAR.0>
0

>  <SCORE.INTRA.REPUL>
0

>  <SCORE.INTRA.REPUL.0>
0

>  <SCORE.INTRA.SOLV>
1.83907

>  <SCORE.INTRA.SOLV.lig_0>
-122.812

>  <SCORE.INTRA.VDW>
2.13467

>  <SCORE.INTRA.VDW.0>
-7.46208

>  <SCORE.INTRA.norm>
-0.0616906

>  <SCORE.RESTR>
1.32875

>  <SCORE.RESTR.CAVITY>
1.32875

>  <SCORE.RESTR.norm>
0.0271173

>  <SCORE.SYSTEM>
0

>  <SCORE.SYSTEM.CONST>
0

>  <SCORE.SYSTEM.DIHEDRAL>
0

>  <SCORE.SYSTEM.SOLV>
0

>  <SCORE.SYSTEM.norm>
0

>  <SCORE.heavy>
49

>  <SCORE.norm>
0.010274

>  <RMSD>
2.201

$$$$
ligand
 OpenBabel11021811513D
libRbt.so/2013.1/901 2013/11/27
 49 52  0  0  0  0  0  0  0  0999 V2000
   26.6151   10.3737   -1.0542 C   0  0  2  0  0  0  0  0  0  0  0  0
   27.1107   11.2361   -0.0730 O   0  0  0  0  0  0  0  0  0  0  0  0
   25.4509   11.0803   -1.8432 C   0  0  2  0  0  0  0  0  0  0  0  0
   25.9816   12.3562   -2.4779 N   0  0  0  0  0  0  0  0  0  0  0  0
   33.0289    8.3074    0.0987 O   0  0  0  0  0  0  0  0  0  0  0  0
   24.2606   11.3722   -0.9000 C   0  0  2  0  0  0  0  0  0  0  0  0
   37.5195   11.5496    1.3758 N   0  0  0  0  0  0  0  0  0  0  0  0
   23.7550   10.0717   -0.2559 C   0  0  2  0  0  0  0  0  0  0  0  0
   24.9039    9.3285    0.5485 C   0  0  2  0  0  0  0  0  0  0  0  0
   26.0775    9.1095   -0.4081 O   0  0  0  0  0  0  0  0  0  0  0  0
   24.3994    7.9853    1.1510 C   0  0  0  0  0  0  0  0  0  0  0  0
   25.4412    7.1196    1.5745 N   0  0  0  0  0  0  0  0  0  0  0  0
   30.9432    9.8555    1.4132 C   0  0  2  0  0  0  0  0  0  0  0  0
   32.3754    9.8916    1.8311 N   0  0  0  0  0  0  0  0  0  0  0  0
   30.8441   10.6281    0.0097 C   0  0  0  0  0  0  0  0  0  0  0  0
   29.3616   10.6164   -0.5196 C   0  0  2  0  0  0  0  0  0  0  0  0
   29.2540   11.3390   -1.7957 N   0  0  0  0  0  0  0  0  0  0  0  0
   28.4252   11.2951    0.4999 C   0  0  2  0  0  0  0  0  0  0  0  0
   28.5022   10.5592    1.8983 C   0  0  2  0  0  0  0  0  0  0  0  0
   27.5721   11.2744    2.7943 O   0  0  0  0  0  0  0  0  0  0  0  0
   30.0161   10.6424    2.4485 C   0  0  1  0  0  0  0  0  0  0  0  0
   30.0613    9.9970    3.6818 O   0  0  0  0  0  0  0  0  0  0  0  0
   27.4535   11.1248    4.0696 C   0  0  1  0  0  0  0  0  0  0  0  0
   26.7070   12.2688    4.8171 C   0  0  2  0  0  0  0  0  0  0  0  0
   27.6518   13.2064    5.2273 O   0  0  0  0  0  0  0  0  0  0  0  0
   26.1888   11.4871    5.9522 C   0  0  1  0  0  0  0  0  0  0  0  0
   25.7427   10.0911    5.4176 C   0  0  2  0  0  0  0  0  0  0  0  0
   26.7771    9.8938    4.4851 O   0  0  0  0  0  0  0  0  0  0  0  0
   24.3031    9.9312    4.9269 C   0  0  0  0  0  0  0  0  0  0  0  0
   24.1061    8.5449    4.7218 O   0  0  0  0  0  0  0  0  0  0  0  0
   27.0052   10.9468    8.2027 C   0  0  2  0  0  0  0  0  0  0  0  0
   27.3042   11.3970    6.9492 O   0  0  0  0  0  0  0  0  0  0  0  0
   28.2227   10.8556    9.0748 C   0  0  1  0  0  0  0  0  0  0  0  0
   25.0813    7.0949    8.0035 N   0  0  0  0  0  0  0  0  0  0  0  0
   35.5824    8.0049    1.3468 O   0  0  0  0  0  0  0  0  0  0  0  0
   27.8131   10.2821   10.4867 C   0  0  2  0  0  0  0  0  0  0  0  0
   27.1027    8.8859   10.4170 C   0  0  1  0  0  0  0  0  0  0  0  0
   25.9305    9.0013    9.5815 C   0  0  1  0  0  0  0  0  0  0  0  0
   26.2976    9.5517    8.2164 O   0  0  0  0  0  0  0  0  0  0  0  0
   25.2002    7.5936    9.4465 C   0  0  0  0  0  0  0  0  0  0  0  0
   29.1623    9.9754    8.5014 N   0  0  0  0  0  0  0  0  0  0  0  0
   23.4142   11.8471   -1.5037 O   0  0  0  0  0  0  0  0  0  0  0  0
   35.3669   10.2372    0.9855 C   0  0  0  0  0  0  0  0  0  0  0  0
   27.8274    8.1351    9.9390 O   0  0  0  0  0  0  0  0  0  0  0  0
   27.0636   11.0114   10.9657 O   0  0  0  0  0  0  0  0  0  0  0  0
   33.3306    9.0335    1.0566 C   0  0  0  0  0  0  0  0  0  0  0  0
   36.4655   10.6575    1.7014 C   0  0  0  0  0  0  0  0  0  0  0  0
   34.8378    9.1905    1.6178 C   0  0  1  0  0  0  0  0  0  0  0  0
   23.2807    9.1977   -1.2502 F   0  0  0  0  0  0  0  0  0  0  0  0
  1  2  1  1  0  0  0
  1 10  1  0  0  0  0
  1  3  1  0  0  0  0
  3  4  1  1  0  0  0
  3  6  1  0  0  0  0
  5 46  2  0  0  0  0
  6 42  1  6  0  0  0
  6  8  1  0  0  0  0
  7 47  1  0  0  0  0
  8  9  1  0  0  0  0
  8 49  1  6  0  0  0
  9 10  1  0  0  0  0
  9 11  1  6  0  0  0
 11 12  1  0  0  0  0
 13 14  1  1  0  0  0
 13 15  1  0  0  0  0
 13 21  1  0  0  0  0
 14 46  1  0  0  0  0
 15 16  1  0  0  0  0
 16 17  1  6  0  0  0
 16 18  1  0  0  0  0
 18  2  1  6  0  0  0
 18 19  1  0  0  0  0
 19 20  1  1  0  0  0
 19 21  1  0  0  0  0
 21 22  1  1  0  0  0
 23 20  1  6  0  0  0
 23 24  1  0  0  0  0
 23 28  1  0  0  0  0
 24 25  1  1  0  0  0
 24 26  1  0  0  0  0
 26 27  1  0  0  0  0
 26 32  1  1  0  0  0
 27 28  1  0  0  0  0
 27 29  1  6  0  0  0
 29 30  1  0  0  0  0
 31 32  1  6  0  0  0
 31 33  1  0  0  0  0
 31 39  1  0  0  0  0
 33 36  1  0  0  0  0
 33 41  1  6  0  0  0
 34 40  1  0  0  0  0
 35 48  1  0  0  0  0
 36 37  1  0  0  0  0
 36 45  1  6  0  0  0
 37 38  1  0  0  0  0
 37 44  1  6  0  0  0
 38 39  1  0  0  0  0
 38 40  1  6  0  0  0
 43 47  1  0  0  0  0
 46 48  1  0  0  0  0
 48 43  1  6  0  0  0
M  END
>  <CHROM.1>
-152.22711170,21.65792073,164.50231907,-71.59050694,-169.99428067,163.04791673
167.53448346,-170.24545372,177.66520119,-120.94712558,167.04331965,-78.69355432
-27.56044332,28.06317619,10.09721103,3.32796534,1.10453857,0.00167747,-1.49773854

>  <Name>
ligand

>  <RI>
0

>  <Rbt.Current_Directory>
/home/itssahil/PROJECTS/Mol_Feturizer/New_Systems/rnas/4PDQ

>  <Rbt.Executable>
rbdock ($Id: //depot/dev/client3/rdock/2013.1/src/exe/rbdock.cxx#4 $)

>  <Rbt.Library>
libRbt.so (2013.1, Build901 2013/11/27)

>  <Rbt.Parameter_File>
/export/apps/rDock/src/rDock_2013.1_src/data/scripts/dock_solv.prm

>  <Rbt.Receptor>
prm/pocket_docking_2.prm

>  <SCORE>
-5.25306

>  <SCORE.INTER>
-1.65816

>  <SCORE.INTER.CONST>
1

>  <SCORE.INTER.POLAR>
0

>  <SCORE.INTER.ROT>
13

>  <SCORE.INTER.SOLV>
21.6746

>  <SCORE.INTER.VDW>
-20.597

>  <SCORE.INTER.norm>
-0.0338401

>  <SCORE.INTRA>
-4.16479

>  <SCORE.INTRA.DIHEDRAL>
-13.8048

>  <SCORE.INTRA.DIHEDRAL.0>
34.5115

>  <SCORE.INTRA.POLAR>
0

>  <SCORE.INTRA.POLAR.0>
0

>  <SCORE.INTRA.REPUL>
0

>  <SCORE.INTRA.REPUL.0>
0

>  <SCORE.INTRA.SOLV>
-0.044663

>  <SCORE.INTRA.SOLV.lig_0>
-122.812

>  <SCORE.INTRA.VDW>
2.75993

>  <SCORE.INTRA.VDW.0>
-7.46208

>  <SCORE.INTRA.norm>
-0.0849956

>  <SCORE.RESTR>
0.569887

>  <SCORE.RESTR.CAVITY>
0.569887

>  <SCORE.RESTR.norm>
0.0116303

>  <SCORE.SYSTEM>
0

>  <SCORE.SYSTEM.CONST>
0

>  <SCORE.SYSTEM.DIHEDRAL>
0

>  <SCORE.SYSTEM.SOLV>
0

>  <SCORE.SYSTEM.norm>
0

>  <SCORE.heavy>
49

>  <SCORE.norm>
-0.107205

>  <RMSD>
2.256

$$$$
ligand
 OpenBabel11021811513D
libRbt.so/2013.1/901 2013/11/27
 49 52  0  0  0  0  0  0  0  0999 V2000
   25.2826   10.5936    0.5904 C   0  0  2  0  0  0  0  0  0  0  0  0
   26.5549   10.0576    0.3760 O   0  0  0  0  0  0  0  0  0  0  0  0
   24.1928    9.4806    0.3647 C   0  0  2  0  0  0  0  0  0  0  0  0
   24.4509    8.3286    1.3231 N   0  0  0  0  0  0  0  0  0  0  0  0
   33.0201   10.3913   -1.6249 O   0  0  0  0  0  0  0  0  0  0  0  0
   24.2058    9.0044   -1.1066 C   0  0  2  0  0  0  0  0  0  0  0  0
   35.8534    9.6986    1.4058 N   0  0  0  0  0  0  0  0  0  0  0  0
   23.9629   10.1882   -2.0559 C   0  0  2  0  0  0  0  0  0  0  0  0
   25.0433   11.3338   -1.8559 C   0  0  2  0  0  0  0  0  0  0  0  0
   25.0316   11.7342   -0.3795 O   0  0  0  0  0  0  0  0  0  0  0  0
   24.7585   12.5524   -2.7808 C   0  0  0  0  0  0  0  0  0  0  0  0
   23.5290   13.2058   -2.5062 N   0  0  0  0  0  0  0  0  0  0  0  0
   30.8522   10.6326    0.3029 C   0  0  2  0  0  0  0  0  0  0  0  0
   32.1759   11.3006    0.4723 N   0  0  0  0  0  0  0  0  0  0  0  0
   29.8760   11.6963   -0.3986 C   0  0  0  0  0  0  0  0  0  0  0  0
   28.4553   11.0621   -0.6386 C   0  0  2  0  0  0  0  0  0  0  0  0
   27.5453   12.0339   -1.2628 N   0  0  0  0  0  0  0  0  0  0  0  0
   27.8376   10.6135    0.7008 C   0  0  2  0  0  0  0  0  0  0  0  0
   28.7787    9.5658    1.4216 C   0  0  2  0  0  0  0  0  0  0  0  0
   28.1001    9.1965    2.6796 O   0  0  0  0  0  0  0  0  0  0  0  0
   30.2044   10.2609    1.7146 C   0  0  1  0  0  0  0  0  0  0  0  0
   31.0144    9.3266    2.3553 O   0  0  0  0  0  0  0  0  0  0  0  0
   27.8315    9.9729    3.6735 C   0  0  1  0  0  0  0  0  0  0  0  0
   28.1184    9.3848    5.0865 C   0  0  2  0  0  0  0  0  0  0  0  0
   26.9601    8.7561    5.5370 O   0  0  0  0  0  0  0  0  0  0  0  0
   28.3654   10.6471    5.8031 C   0  0  1  0  0  0  0  0  0  0  0  0
   29.1665   11.5942    4.8573 C   0  0  2  0  0  0  0  0  0  0  0  0
   28.5229   11.2640    3.6510 O   0  0  0  0  0  0  0  0  0  0  0  0
   30.6940   11.5256    4.8899 C   0  0  0  0  0  0  0  0  0  0  0  0
   31.0339   10.1665    4.6899 O   0  0  0  0  0  0  0  0  0  0  0  0
   26.5417   10.9307    7.4208 C   0  0  2  0  0  0  0  0  0  0  0  0
   27.0201   11.1964    6.1702 O   0  0  0  0  0  0  0  0  0  0  0  0
   27.3993   11.5354    8.4932 C   0  0  1  0  0  0  0  0  0  0  0  0
   25.0589    7.0292   10.5638 N   0  0  0  0  0  0  0  0  0  0  0  0
   34.6686   12.1127    1.1138 O   0  0  0  0  0  0  0  0  0  0  0  0
   26.8188   11.1471    9.9082 C   0  0  2  0  0  0  0  0  0  0  0  0
   26.6949    9.6005   10.1350 C   0  0  1  0  0  0  0  0  0  0  0  0
   25.8583    9.0436    9.0979 C   0  0  1  0  0  0  0  0  0  0  0  0
   26.3953    9.4033    7.7256 O   0  0  0  0  0  0  0  0  0  0  0  0
   25.7401    7.4651    9.2634 C   0  0  0  0  0  0  0  0  0  0  0  0
   28.7114   11.0286    8.4050 N   0  0  0  0  0  0  0  0  0  0  0  0
   23.3805    8.2278   -1.2545 O   0  0  0  0  0  0  0  0  0  0  0  0
   35.5570   11.0919   -0.7106 C   0  0  0  0  0  0  0  0  0  0  0  0
   27.7426    9.1385   10.0555 O   0  0  0  0  0  0  0  0  0  0  0  0
   25.7562   11.5799    9.9905 O   0  0  0  0  0  0  0  0  0  0  0  0
   33.1928   11.0763   -0.6068 C   0  0  0  0  0  0  0  0  0  0  0  0
   35.5448    9.9389    0.0421 C   0  0  0  0  0  0  0  0  0  0  0  0
   34.5628   11.8716   -0.2876 C   0  0  1  0  0  0  0  0  0  0  0  0
   22.6912   10.7393   -1.8186 F   0  0  0  0  0  0  0  0  0  0  0  0
  1  2  1  6  0  0  0
  1 10  1  0  0  0  0
  1  3  1  0  0  0  0
  3  4  1  1  0  0  0
  3  6  1  0  0  0  0
  5 46  2  0  0  0  0
  6 42  1  1  0  0  0
  6  8  1  0  0  0  0
  7 47  1  0  0  0  0
  8  9  1  0  0  0  0
  8 49  1  1  0  0  0
  9 10  1  0  0  0  0
  9 11  1  6  0  0  0
 11 12  1  0  0  0  0
 13 14  1  1  0  0  0
 13 15  1  0  0  0  0
 13 21  1  0  0  0  0
 14 46  1  0  0  0  0
 15 16  1  0  0  0  0
 16 17  1  1  0  0  0
 16 18  1  0  0  0  0
 18  2  1  6  0  0  0
 18 19  1  0  0  0  0
 19 20  1  1  0  0  0
 19 21  1  0  0  0  0
 21 22  1  6  0  0  0
 23 20  1  6  0  0  0
 23 24  1  0  0  0  0
 23 28  1  0  0  0  0
 24 25  1  1  0  0  0
 24 26  1  0  0  0  0
 26 27  1  0  0  0  0
 26 32  1  6  0  0  0
 27 28  1  0  0  0  0
 27 29  1  6  0  0  0
 29 30  1  0  0  0  0
 31 32  1  6  0  0  0
 31 33  1  0  0  0  0
 31 39  1  0  0  0  0
 33 36  1  0  0  0  0
 33 41  1  1  0  0  0
 34 40  1  0  0  0  0
 35 48  1  0  0  0  0
 36 37  1  0  0  0  0
 36 45  1  6  0  0  0
 37 38  1  0  0  0  0
 37 44  1  6  0  0  0
 38 39  1  0  0  0  0
 38 40  1  6  0  0  0
 43 47  1  0  0  0  0
 46 48  1  0  0  0  0
 48 43  1  1  0  0  0
M  END
>  <CHROM.1>
-167.19745088,-106.63297427,63.42998875,-94.34518797,-63.64400839,-136.50227323
95.95867138,53.22697414,63.44166627,63.37284044,-69.38481205,55.35651174
-157.34093146,28.14639319,10.39370748,2.87582320,1.28357415,-0.06929755,-1.46365013

>  <Name>
ligand

>  <RI>
0

>  <Rbt.Current_Directory>
/home/itssahil/PROJECTS/Mol_Feturizer/New_Systems/rnas/4PDQ

>  <Rbt.Executable>
rbdock ($Id: //depot/dev/client3/rdock/2013.1/src/exe/rbdock.cxx#4 $)

>  <Rbt.Library>
libRbt.so (2013.1, Build901 2013/11/27)

>  <Rbt.Parameter_File>
/export/apps/rDock/src/rDock_2013.1_src/data/scripts/dock_solv.prm

>  <Rbt.Receptor>
prm/pocket_docking_2.prm

>  <SCORE>
7.15463

>  <SCORE.INTER>
-2.31776

>  <SCORE.INTER.CONST>
1

>  <SCORE.INTER.POLAR>
0

>  <SCORE.INTER.ROT>
13

>  <SCORE.INTER.SOLV>
20.6452

>  <SCORE.INTER.VDW>
-20.6936

>  <SCORE.INTER.norm>
-0.0473013

>  <SCORE.INTRA>
7.10534

>  <SCORE.INTRA.DIHEDRAL>
-13.2635

>  <SCORE.INTRA.DIHEDRAL.0>
34.5115

>  <SCORE.INTRA.POLAR>
0

>  <SCORE.INTRA.POLAR.0>
0

>  <SCORE.INTRA.REPUL>
0

>  <SCORE.INTRA.REPUL.0>
0

>  <SCORE.INTRA.SOLV>
7.68652

>  <SCORE.INTRA.SOLV.lig_0>
-122.812

>  <SCORE.INTRA.VDW>
9.89382

>  <SCORE.INTRA.VDW.0>
-7.46208

>  <SCORE.INTRA.norm>
0.145007

>  <SCORE.RESTR>
2.36706

>  <SCORE.RESTR.CAVITY>
2.36706

>  <SCORE.RESTR.norm>
0.0483073

>  <SCORE.SYSTEM>
0

>  <SCORE.SYSTEM.CONST>
0

>  <SCORE.SYSTEM.DIHEDRAL>
0

>  <SCORE.SYSTEM.SOLV>
0

>  <SCORE.SYSTEM.norm>
0

>  <SCORE.heavy>
49

>  <SCORE.norm>
0.146013

>  <RMSD>
2.258

$$$$
ligand
 OpenBabel11021811513D
libRbt.so/2013.1/901 2013/11/27
 49 52  0  0  0  0  0  0  0  0999 V2000
   27.0239   10.4370   -0.7486 C   0  0  2  0  0  0  0  0  0  0  0  0
   27.5991   11.3279    0.1609 O   0  0  0  0  0  0  0  0  0  0  0  0
   25.8354   11.1414   -1.5025 C   0  0  2  0  0  0  0  0  0  0  0  0
   26.3627   12.3706   -2.2259 N   0  0  0  0  0  0  0  0  0  0  0  0
   33.6484    8.9270   -0.5099 O   0  0  0  0  0  0  0  0  0  0  0  0
   24.7104   11.5114   -0.5077 C   0  0  2  0  0  0  0  0  0  0  0  0
   38.3888   10.0854    1.6970 N   0  0  0  0  0  0  0  0  0  0  0  0
   24.2081   10.2573    0.2247 C   0  0  2  0  0  0  0  0  0  0  0  0
   25.3813    9.5174    0.9966 C   0  0  2  0  0  0  0  0  0  0  0  0
   26.4906    9.2201   -0.0140 O   0  0  0  0  0  0  0  0  0  0  0  0
   24.8764    8.2188    1.6896 C   0  0  0  0  0  0  0  0  0  0  0  0
   25.8565    7.5788    2.4920 N   0  0  0  0  0  0  0  0  0  0  0  0
   31.7162   10.3663    1.1241 C   0  0  2  0  0  0  0  0  0  0  0  0
   33.1926   10.5296    1.2683 N   0  0  0  0  0  0  0  0  0  0  0  0
   31.3253   10.9015   -0.3378 C   0  0  0  0  0  0  0  0  0  0  0  0
   29.7788   10.7424   -0.5850 C   0  0  2  0  0  0  0  0  0  0  0  0
   29.4048   11.2481   -1.9140 N   0  0  0  0  0  0  0  0  0  0  0  0
   28.9847   11.5334    0.4736 C   0  0  2  0  0  0  0  0  0  0  0  0
   29.3505   11.0325    1.9290 C   0  0  2  0  0  0  0  0  0  0  0  0
   28.5389   11.8402    2.8609 O   0  0  0  0  0  0  0  0  0  0  0  0
   30.9263   11.2669    2.1803 C   0  0  1  0  0  0  0  0  0  0  0  0
   31.2263   10.8277    3.4674 O   0  0  0  0  0  0  0  0  0  0  0  0
   28.3389   11.6121    4.1142 C   0  0  1  0  0  0  0  0  0  0  0  0
   28.6119   12.8102    5.0706 C   0  0  2  0  0  0  0  0  0  0  0  0
   29.9395   12.7389    5.4857 O   0  0  0  0  0  0  0  0  0  0  0  0
   27.6837   12.4424    6.1529 C   0  0  1  0  0  0  0  0  0  0  0  0
   26.3866   11.8660    5.5059 C   0  0  2  0  0  0  0  0  0  0  0  0
   26.9873   11.1576    4.4496 O   0  0  0  0  0  0  0  0  0  0  0  0
   25.2583   12.8383    5.1587 C   0  0  0  0  0  0  0  0  0  0  0  0
   25.8086   13.7772    4.2541 O   0  0  0  0  0  0  0  0  0  0  0  0
   27.6598   10.6903    7.8713 C   0  0  2  0  0  0  0  0  0  0  0  0
   28.4018   11.4399    7.0047 O   0  0  0  0  0  0  0  0  0  0  0  0
   28.4969   10.1037    8.9695 C   0  0  1  0  0  0  0  0  0  0  0  0
   24.1903    6.7966    8.0512 N   0  0  0  0  0  0  0  0  0  0  0  0
   35.8145   11.3935    0.9113 O   0  0  0  0  0  0  0  0  0  0  0  0
   27.5877    9.2114    9.9007 C   0  0  2  0  0  0  0  0  0  0  0  0
   26.8352    8.0675    9.1365 C   0  0  1  0  0  0  0  0  0  0  0  0
   26.0299    8.6567    8.0926 C   0  0  1  0  0  0  0  0  0  0  0  0
   26.8816    9.5211    7.1823 O   0  0  0  0  0  0  0  0  0  0  0  0
   25.2801    7.5260    7.2604 C   0  0  0  0  0  0  0  0  0  0  0  0
   29.5028    9.2814    8.4231 N   0  0  0  0  0  0  0  0  0  0  0  0
   23.8435   11.9834   -1.0840 O   0  0  0  0  0  0  0  0  0  0  0  0
   35.9764    9.2561    1.6631 C   0  0  0  0  0  0  0  0  0  0  0  0
   27.6174    7.3773    8.6578 O   0  0  0  0  0  0  0  0  0  0  0  0
   26.7802    9.8859   10.3655 O   0  0  0  0  0  0  0  0  0  0  0  0
   34.0584    9.7144    0.3547 C   0  0  0  0  0  0  0  0  0  0  0  0
   37.3469    9.1235    1.6498 C   0  0  0  0  0  0  0  0  0  0  0  0
   35.6244   10.0101    0.6225 C   0  0  1  0  0  0  0  0  0  0  0  0
   23.6530    9.3535   -0.6985 F   0  0  0  0  0  0  0  0  0  0  0  0
  1  2  1  1  0  0  0
  1 10  1  0  0  0  0
  1  3  1  0  0  0  0
  3  4  1  1  0  0  0
  3  6  1  0  0  0  0
  5 46  2  0  0  0  0
  6 42  1  6  0  0  0
  6  8  1  0  0  0  0
  7 47  1  0  0  0  0
  8  9  1  0  0  0  0
  8 49  1  6  0  0  0
  9 10  1  0  0  0  0
  9 11  1  6  0  0  0
 11 12  1  0  0  0  0
 13 14  1  1  0  0  0
 13 15  1  0  0  0  0
 13 21  1  0  0  0  0
 14 46  1  0  0  0  0
 15 16  1  0  0  0  0
 16 17  1  6  0  0  0
 16 18  1  0  0  0  0
 18  2  1  6  0  0  0
 18 19  1  0  0  0  0
 19 20  1  1  0  0  0
 19 21  1  0  0  0  0
 21 22  1  1  0  0  0
 23 20  1  6  0  0  0
 23 24  1  0  0  0  0
 23 28  1  0  0  0  0
 24 25  1  1  0  0  0
 24 26  1  0  0  0  0
 26 27  1  0  0  0  0
 26 32  1  1  0  0  0
 27 28  1  0  0  0  0
 27 29  1  6  0  0  0
 29 30  1  0  0  0  0
 31 32  1  6  0  0  0
 31 33  1  0  0  0  0
 31 39  1  0  0  0  0
 33 36  1  0  0  0  0
 33 41  1  6  0  0  0
 34 40  1  0  0  0  0
 35 48  1  0  0  0  0
 36 37  1  0  0  0  0
 36 45  1  6  0  0  0
 37 38  1  0  0  0  0
 37 44  1  6  0  0  0
 38 39  1  0  0  0  0
 38 40  1  6  0  0  0
 43 47  1  0  0  0  0
 46 48  1  0  0  0  0
 48 43  1  1  0  0  0
M  END
>  <CHROM.1>
-139.62668795,9.97959753,-174.75801690,-64.62271767,166.56165308,128.83877039
-163.79523444,59.00071124,-159.87486942,68.61673517,58.60103271,-80.44337501
141.55984701,28.64296925,10.40181554,3.19595018,0.75668312,0.02257277,-1.43459476

>  <Name>
ligand

>  <RI>
0

>  <Rbt.Current_Directory>
/home/itssahil/PROJECTS/Mol_Feturizer/New_Systems/rnas/4PDQ

>  <Rbt.Executable>
rbdock ($Id: //depot/dev/client3/rdock/2013.1/src/exe/rbdock.cxx#4 $)

>  <Rbt.Library>
libRbt.so (2013.1, Build901 2013/11/27)

>  <Rbt.Parameter_File>
/export/apps/rDock/src/rDock_2013.1_src/data/scripts/dock_solv.prm

>  <Rbt.Receptor>
prm/pocket_docking_2.prm

>  <SCORE>
3.87311

>  <SCORE.INTER>
2.05786

>  <SCORE.INTER.CONST>
1

>  <SCORE.INTER.POLAR>
0

>  <SCORE.INTER.ROT>
13

>  <SCORE.INTER.SOLV>
24.2639

>  <SCORE.INTER.VDW>
-18.9827

>  <SCORE.INTER.norm>
0.0419972

>  <SCORE.INTRA>
-0.526889

>  <SCORE.INTRA.DIHEDRAL>
-8.57265

>  <SCORE.INTRA.DIHEDRAL.0>
34.5115

>  <SCORE.INTRA.POLAR>
0

>  <SCORE.INTRA.POLAR.0>
0

>  <SCORE.INTRA.REPUL>
0

>  <SCORE.INTRA.REPUL.0>
0

>  <SCORE.INTRA.SOLV>
-0.00367856

>  <SCORE.INTRA.SOLV.lig_0>
-122.812

>  <SCORE.INTRA.VDW>
3.76127

>  <SCORE.INTRA.VDW.0>
-7.46208

>  <SCORE.INTRA.norm>
-0.0107528

>  <SCORE.RESTR>
2.34214

>  <SCORE.RESTR.CAVITY>
2.34214

>  <SCORE.RESTR.norm>
0.0477987

>  <SCORE.SYSTEM>
0

>  <SCORE.SYSTEM.CONST>
0

>  <SCORE.SYSTEM.DIHEDRAL>
0

>  <SCORE.SYSTEM.SOLV>
0

>  <SCORE.SYSTEM.norm>
0

>  <SCORE.heavy>
49

>  <SCORE.norm>
0.0790431

>  <RMSD>
2.289

$$$$
ligand
 OpenBabel11021811513D
libRbt.so/2013.1/901 2013/11/27
 49 52  0  0  0  0  0  0  0  0999 V2000
   25.9132   11.6621    0.2435 C   0  0  2  0  0  0  0  0  0  0  0  0
   27.1362   11.0770   -0.0940 O   0  0  0  0  0  0  0  0  0  0  0  0
   24.7900   10.5602    0.2816 C   0  0  2  0  0  0  0  0  0  0  0  0
   25.1685    9.4977    1.3015 N   0  0  0  0  0  0  0  0  0  0  0  0
   33.6134    9.7687   -1.0514 O   0  0  0  0  0  0  0  0  0  0  0  0
   24.5891    9.9470   -1.1239 C   0  0  2  0  0  0  0  0  0  0  0  0
   37.3375    9.8092    0.5103 N   0  0  0  0  0  0  0  0  0  0  0  0
   24.2273   11.0416   -2.1401 C   0  0  2  0  0  0  0  0  0  0  0  0
   25.3379   12.1738   -2.2053 C   0  0  2  0  0  0  0  0  0  0  0  0
   25.5401   12.7120   -0.7877 O   0  0  0  0  0  0  0  0  0  0  0  0
   24.9385   13.3064   -3.1950 C   0  0  0  0  0  0  0  0  0  0  0  0
   25.9331   14.3062   -3.3538 N   0  0  0  0  0  0  0  0  0  0  0  0
   31.4580   11.2734    0.1996 C   0  0  2  0  0  0  0  0  0  0  0  0
   32.8462   11.8010    0.0527 N   0  0  0  0  0  0  0  0  0  0  0  0
   30.7278   11.4728   -1.2159 C   0  0  0  0  0  0  0  0  0  0  0  0
   29.2561   10.9170   -1.1572 C   0  0  2  0  0  0  0  0  0  0  0  0
   28.5696   11.1123   -2.4427 N   0  0  0  0  0  0  0  0  0  0  0  0
   28.4521   11.6491   -0.0643 C   0  0  2  0  0  0  0  0  0  0  0  0
   29.1484   11.4758    1.3456 C   0  0  2  0  0  0  0  0  0  0  0  0
   28.3044   12.2006    2.3161 O   0  0  0  0  0  0  0  0  0  0  0  0
   30.6292   12.1113    1.2773 C   0  0  1  0  0  0  0  0  0  0  0  0
   31.2217   11.9561    2.5282 O   0  0  0  0  0  0  0  0  0  0  0  0
   28.2091   11.9755    3.5822 C   0  0  1  0  0  0  0  0  0  0  0  0
   27.6272   10.5868    3.9793 C   0  0  2  0  0  0  0  0  0  0  0  0
   26.2470   10.7178    4.1126 O   0  0  0  0  0  0  0  0  0  0  0  0
   28.2878   10.4383    5.2868 C   0  0  1  0  0  0  0  0  0  0  0  0
   29.7409   10.9919    5.1629 C   0  0  2  0  0  0  0  0  0  0  0  0
   29.4671   12.0874    4.3241 O   0  0  0  0  0  0  0  0  0  0  0  0
   30.8479   10.0277    4.7342 C   0  0  0  0  0  0  0  0  0  0  0  0
   30.9256    9.0394    5.7442 O   0  0  0  0  0  0  0  0  0  0  0  0
   27.8119   11.1470    7.5878 C   0  0  2  0  0  0  0  0  0  0  0  0
   27.4570   11.2048    6.2709 O   0  0  0  0  0  0  0  0  0  0  0  0
   27.8054    9.7415    8.1127 C   0  0  1  0  0  0  0  0  0  0  0  0
   24.8050   12.4870   10.7771 N   0  0  0  0  0  0  0  0  0  0  0  0
   35.1707   12.8756   -1.3669 O   0  0  0  0  0  0  0  0  0  0  0  0
   28.1734    9.7544    9.6472 C   0  0  2  0  0  0  0  0  0  0  0  0
   27.2235   10.6509   10.5148 C   0  0  1  0  0  0  0  0  0  0  0  0
   27.2542   11.9987    9.9971 C   0  0  1  0  0  0  0  0  0  0  0  0
   26.9038   12.0137    8.5212 O   0  0  0  0  0  0  0  0  0  0  0  0
   26.2682   12.9365   10.8225 C   0  0  0  0  0  0  0  0  0  0  0  0
   26.5193    9.1813    7.9765 N   0  0  0  0  0  0  0  0  0  0  0  0
   23.7424    9.1806   -1.0788 O   0  0  0  0  0  0  0  0  0  0  0  0
   35.7166   11.7790    0.5461 C   0  0  0  0  0  0  0  0  0  0  0  0
   26.1553   10.2412   10.4218 O   0  0  0  0  0  0  0  0  0  0  0  0
   29.2322   10.1902    9.7578 O   0  0  0  0  0  0  0  0  0  0  0  0
   33.8472   10.9032   -0.6111 C   0  0  0  0  0  0  0  0  0  0  0  0
   36.2425   10.5814    0.9766 C   0  0  0  0  0  0  0  0  0  0  0  0
   35.2937   11.6174   -0.7071 C   0  0  1  0  0  0  0  0  0  0  0  0
   23.0083   11.6440   -1.7816 F   0  0  0  0  0  0  0  0  0  0  0  0
  1  2  1  6  0  0  0
  1 10  1  0  0  0  0
  1  3  1  0  0  0  0
  3  4  1  1  0  0  0
  3  6  1  0  0  0  0
  5 46  2  0  0  0  0
  6 42  1  1  0  0  0
  6  8  1  0  0  0  0
  7 47  1  0  0  0  0
  8  9  1  0  0  0  0
  8 49  1  1  0  0  0
  9 10  1  0  0  0  0
  9 11  1  6  0  0  0
 11 12  1  0  0  0  0
 13 14  1  6  0  0  0
 13 15  1  0  0  0  0
 13 21  1  0  0  0  0
 14 46  1  0  0  0  0
 15 16  1  0  0  0  0
 16 17  1  6  0  0  0
 16 18  1  0  0  0  0
 18  2  1  1  0  0  0
 18 19  1  0  0  0  0
 19 20  1  1  0  0  0
 19 21  1  0  0  0  0
 21 22  1  1  0  0  0
 23 20  1  6  0  0  0
 23 24  1  0  0  0  0
 23 28  1  0  0  0  0
 24 25  1  1  0  0  0
 24 26  1  0  0  0  0
 26 27  1  0  0  0  0
 26 32  1  1  0  0  0
 27 28  1  0  0  0  0
 27 29  1  6  0  0  0
 29 30  1  0  0  0  0
 31 32  1  6  0  0  0
 31 33  1  0  0  0  0
 31 39  1  0  0  0  0
 33 36  1  0  0  0  0
 33 41  1  1  0  0  0
 34 40  1  0  0  0  0
 35 48  1  0  0  0  0
 36 37  1  0  0  0  0
 36 45  1  6  0  0  0
 37 38  1  0  0  0  0
 37 44  1  6  0  0  0
 38 39  1  0  0  0  0
 38 40  1  1  0  0  0
 43 47  1  0  0  0  0
 46 48  1  0  0  0  0
 48 43  1  1  0  0  0
M  END
>  <CHROM.1>
-170.31534438,-151.15092120,-176.39623201,-80.22426985,154.68269414,-63.80158095
175.57443776,-62.87166836,-58.91863178,-60.24393530,61.72085230,-159.94824243
124.07385486,28.63739655,11.18337158,2.74771654,1.29037752,0.03621522,-1.50264579

>  <Name>
ligand

>  <RI>
0

>  <Rbt.Current_Directory>
/home/itssahil/PROJECTS/Mol_Feturizer/New_Systems/rnas/4PDQ

>  <Rbt.Executable>
rbdock ($Id: //depot/dev/client3/rdock/2013.1/src/exe/rbdock.cxx#4 $)

>  <Rbt.Library>
libRbt.so (2013.1, Build901 2013/11/27)

>  <Rbt.Parameter_File>
/export/apps/rDock/src/rDock_2013.1_src/data/scripts/dock_solv.prm

>  <Rbt.Receptor>
prm/pocket_docking_4.prm

>  <SCORE>
-14.7113

>  <SCORE.INTER>
-5.10585

>  <SCORE.INTER.CONST>
1

>  <SCORE.INTER.POLAR>
0

>  <SCORE.INTER.ROT>
13

>  <SCORE.INTER.SOLV>
24.8611

>  <SCORE.INTER.VDW>
-23.9576

>  <SCORE.INTER.norm>
-0.104201

>  <SCORE.INTRA>
-9.62248

>  <SCORE.INTRA.DIHEDRAL>
-25.185

>  <SCORE.INTRA.DIHEDRAL.0>
34.5115

>  <SCORE.INTRA.POLAR>
0

>  <SCORE.INTRA.POLAR.0>
0

>  <SCORE.INTRA.REPUL>
0

>  <SCORE.INTRA.REPUL.0>
0

>  <SCORE.INTRA.SOLV>
1.65669

>  <SCORE.INTRA.SOLV.lig_0>
-122.812

>  <SCORE.INTRA.VDW>
2.14168

>  <SCORE.INTRA.VDW.0>
-7.46208

>  <SCORE.INTRA.norm>
-0.196377

>  <SCORE.RESTR>
0.0169807

>  <SCORE.RESTR.CAVITY>
0.0169807

>  <SCORE.RESTR.norm>
0.000346544

>  <SCORE.SYSTEM>
0

>  <SCORE.SYSTEM.CONST>
0

>  <SCORE.SYSTEM.DIHEDRAL>
0

>  <SCORE.SYSTEM.SOLV>
0

>  <SCORE.SYSTEM.norm>
0

>  <SCORE.heavy>
49

>  <SCORE.norm>
-0.300232

>  <RMSD>
2.289

$$$$
ligand
 OpenBabel11021811513D
libRbt.so/2013.1/901 2013/11/27
 49 52  0  0  0  0  0  0  0  0999 V2000
   25.8661   11.2548    0.5524 C   0  0  2  0  0  0  0  0  0  0  0  0
   27.0987   10.6863    0.2215 O   0  0  0  0  0  0  0  0  0  0  0  0
   24.7597   10.1362    0.5943 C   0  0  2  0  0  0  0  0  0  0  0  0
   25.1516    9.0857    1.6215 N   0  0  0  0  0  0  0  0  0  0  0  0
   33.5872    9.5956   -1.2650 O   0  0  0  0  0  0  0  0  0  0  0  0
   24.5717    9.5117   -0.8081 C   0  0  2  0  0  0  0  0  0  0  0  0
   37.9480   12.5739   -0.4429 N   0  0  0  0  0  0  0  0  0  0  0  0
   24.1960   10.5946   -1.8316 C   0  0  2  0  0  0  0  0  0  0  0  0
   25.2895   11.7432   -1.9009 C   0  0  2  0  0  0  0  0  0  0  0  0
   25.4798   12.2928   -0.4860 O   0  0  0  0  0  0  0  0  0  0  0  0
   24.8755   12.8636   -2.8983 C   0  0  0  0  0  0  0  0  0  0  0  0
   25.8078   13.9304   -2.9814 N   0  0  0  0  0  0  0  0  0  0  0  0
   31.4245   10.9681    0.1185 C   0  0  2  0  0  0  0  0  0  0  0  0
   32.7826   11.5586   -0.0661 N   0  0  0  0  0  0  0  0  0  0  0  0
   30.5499   11.3942   -1.1582 C   0  0  0  0  0  0  0  0  0  0  0  0
   29.1001   10.7891   -1.0568 C   0  0  2  0  0  0  0  0  0  0  0  0
   28.2823   11.1893   -2.2113 N   0  0  0  0  0  0  0  0  0  0  0  0
   28.4023   11.2866    0.2249 C   0  0  2  0  0  0  0  0  0  0  0  0
   29.2424   10.8860    1.5042 C   0  0  2  0  0  0  0  0  0  0  0  0
   28.4924   11.3969    2.6686 O   0  0  0  0  0  0  0  0  0  0  0  0
   30.6991   11.5716    1.4070 C   0  0  1  0  0  0  0  0  0  0  0  0
   31.4192   11.2139    2.5441 O   0  0  0  0  0  0  0  0  0  0  0  0
   28.4156   10.8605    3.8387 C   0  0  1  0  0  0  0  0  0  0  0  0
   29.7466   10.2856    4.4067 C   0  0  2  0  0  0  0  0  0  0  0  0
   29.8355    8.9475    4.0306 O   0  0  0  0  0  0  0  0  0  0  0  0
   29.4520   10.4282    5.8422 C   0  0  1  0  0  0  0  0  0  0  0  0
   28.6950   11.7760    6.0515 C   0  0  2  0  0  0  0  0  0  0  0  0
   27.9038   11.7440    4.8890 O   0  0  0  0  0  0  0  0  0  0  0  0
   29.5212   13.0359    6.3147 C   0  0  0  0  0  0  0  0  0  0  0  0
   28.5924   14.0726    6.5702 O   0  0  0  0  0  0  0  0  0  0  0  0
   28.3696    9.0399    7.5524 C   0  0  2  0  0  0  0  0  0  0  0  0
   28.6298    9.2355    6.2266 O   0  0  0  0  0  0  0  0  0  0  0  0
   27.5340    7.8164    7.7888 C   0  0  1  0  0  0  0  0  0  0  0  0
   26.3760   11.3583   11.7918 N   0  0  0  0  0  0  0  0  0  0  0  0
   34.9762   12.8560   -1.3166 O   0  0  0  0  0  0  0  0  0  0  0  0
   27.2298    7.6807    9.3313 C   0  0  2  0  0  0  0  0  0  0  0  0
   26.5202    8.9367    9.9459 C   0  0  1  0  0  0  0  0  0  0  0  0
   27.3468   10.0980    9.7146 C   0  0  1  0  0  0  0  0  0  0  0  0
   27.6544   10.2511    8.2371 O   0  0  0  0  0  0  0  0  0  0  0  0
   26.6431   11.4068   10.2847 C   0  0  0  0  0  0  0  0  0  0  0  0
   26.3046    7.9329    7.1095 N   0  0  0  0  0  0  0  0  0  0  0  0
   23.7366    8.7328   -0.7604 O   0  0  0  0  0  0  0  0  0  0  0  0
   35.7755   11.4445    0.2736 C   0  0  0  0  0  0  0  0  0  0  0  0
   25.5158    9.0827    9.4098 O   0  0  0  0  0  0  0  0  0  0  0  0
   28.2313    7.5624    9.8847 O   0  0  0  0  0  0  0  0  0  0  0  0
   33.7918   10.7251   -0.7979 C   0  0  0  0  0  0  0  0  0  0  0  0
   37.1380   11.5442    0.1016 C   0  0  0  0  0  0  0  0  0  0  0  0
   35.2023   11.5029   -0.9279 C   0  0  1  0  0  0  0  0  0  0  0  0
   22.9671   11.1805   -1.4798 F   0  0  0  0  0  0  0  0  0  0  0  0
  1  2  1  6  0  0  0
  1 10  1  0  0  0  0
  1  3  1  0  0  0  0
  3  4  1  1  0  0  0
  3  6  1  0  0  0  0
  5 46  2  0  0  0  0
  6 42  1  1  0  0  0
  6  8  1  0  0  0  0
  7 47  1  0  0  0  0
  8  9  1  0  0  0  0
  8 49  1  1  0  0  0
  9 10  1  0  0  0  0
  9 11  1  6  0  0  0
 11 12  1  0  0  0  0
 13 14  1  6  0  0  0
 13 15  1  0  0  0  0
 13 21  1  0  0  0  0
 14 46  1  0  0  0  0
 15 16  1  0  0  0  0
 16 17  1  6  0  0  0
 16 18  1  0  0  0  0
 18  2  1  1  0  0  0
 18 19  1  0  0  0  0
 19 20  1  1  0  0  0
 19 21  1  0  0  0  0
 21 22  1  1  0  0  0
 23 20  1  6  0  0  0
 23 24  1  0  0  0  0
 23 28  1  0  0  0  0
 24 25  1  1  0  0  0
 24 26  1  0  0  0  0
 26 27  1  0  0  0  0
 26 32  1  6  0  0  0
 27 28  1  0  0  0  0
 27 29  1  6  0  0  0
 29 30  1  0  0  0  0
 31 32  1  6  0  0  0
 31 33  1  0  0  0  0
 31 39  1  0  0  0  0
 33 36  1  0  0  0  0
 33 41  1  6  0  0  0
 34 40  1  0  0  0  0
 35 48  1  0  0  0  0
 36 37  1  0  0  0  0
 36 45  1  1  0  0  0
 37 38  1  0  0  0  0
 37 44  1  6  0  0  0
 38 39  1  0  0  0  0
 38 40  1  6  0  0  0
 43 47  1  0  0  0  0
 46 48  1  0  0  0  0
 48 43  1  1  0  0  0
M  END
>  <CHROM.1>
-171.73522039,-137.98994979,178.90321791,-89.58197458,146.44394086,41.91003278
171.66226018,-175.44205134,179.72714082,60.29863593,61.52576932,-86.38819286
134.35169182,28.67651736,10.74252959,2.83326097,1.20037740,-0.08620562,-1.41707043

>  <Name>
ligand

>  <RI>
0

>  <Rbt.Current_Directory>
/home/itssahil/PROJECTS/Mol_Feturizer/New_Systems/rnas/4PDQ

>  <Rbt.Executable>
rbdock ($Id: //depot/dev/client3/rdock/2013.1/src/exe/rbdock.cxx#4 $)

>  <Rbt.Library>
libRbt.so (2013.1, Build901 2013/11/27)

>  <Rbt.Parameter_File>
/export/apps/rDock/src/rDock_2013.1_src/data/scripts/dock_solv.prm

>  <Rbt.Receptor>
prm/pocket_docking_3.prm

>  <SCORE>
-12.9786

>  <SCORE.INTER>
-5.67519

>  <SCORE.INTER.CONST>
1

>  <SCORE.INTER.POLAR>
0

>  <SCORE.INTER.ROT>
13

>  <SCORE.INTER.SOLV>
21.837

>  <SCORE.INTER.VDW>
-23.3291

>  <SCORE.INTER.norm>
-0.11582

>  <SCORE.INTRA>
-7.3034

>  <SCORE.INTRA.DIHEDRAL>
-18.4977

>  <SCORE.INTRA.DIHEDRAL.0>
34.5115

>  <SCORE.INTRA.POLAR>
0

>  <SCORE.INTRA.POLAR.0>
0

>  <SCORE.INTRA.REPUL>
0

>  <SCORE.INTRA.REPUL.0>
0

>  <SCORE.INTRA.SOLV>
-0.0735694

>  <SCORE.INTRA.SOLV.lig_0>
-122.812

>  <SCORE.INTRA.VDW>
1.98225

>  <SCORE.INTRA.VDW.0>
-7.46208

>  <SCORE.INTRA.norm>
-0.149049

>  <SCORE.RESTR>
0

>  <SCORE.RESTR.CAVITY>
0

>  <SCORE.RESTR.norm>
0

>  <SCORE.SYSTEM>
0

>  <SCORE.SYSTEM.CONST>
0

>  <SCORE.SYSTEM.DIHEDRAL>
0

>  <SCORE.SYSTEM.SOLV>
0

>  <SCORE.SYSTEM.norm>
0

>  <SCORE.heavy>
49

>  <SCORE.norm>
-0.264869

>  <RMSD>
2.299

$$$$
ligand
 OpenBabel11021811513D
libRbt.so/2013.1/901 2013/11/27
 49 52  0  0  0  0  0  0  0  0999 V2000
   25.9493   11.3884    0.7067 C   0  0  2  0  0  0  0  0  0  0  0  0
   27.1935   10.8545    0.3616 O   0  0  0  0  0  0  0  0  0  0  0  0
   24.8419   10.2769    0.5831 C   0  0  2  0  0  0  0  0  0  0  0  0
   25.1945    9.1177    1.5020 N   0  0  0  0  0  0  0  0  0  0  0  0
   33.5832   10.0255   -1.2000 O   0  0  0  0  0  0  0  0  0  0  0  0
   24.7071    9.8118   -0.8857 C   0  0  2  0  0  0  0  0  0  0  0  0
   38.3087   11.4961   -2.5907 N   0  0  0  0  0  0  0  0  0  0  0  0
   24.3705   11.0026   -1.7968 C   0  0  2  0  0  0  0  0  0  0  0  0
   25.4661   12.1470   -1.6976 C   0  0  2  0  0  0  0  0  0  0  0  0
   25.6028   12.5363   -0.2245 O   0  0  0  0  0  0  0  0  0  0  0  0
   25.0904   13.3725   -2.5800 C   0  0  0  0  0  0  0  0  0  0  0  0
   25.1671   13.1201   -3.9744 N   0  0  0  0  0  0  0  0  0  0  0  0
   31.5078   11.2873    0.4049 C   0  0  2  0  0  0  0  0  0  0  0  0
   32.8539   11.8930    0.1852 N   0  0  0  0  0  0  0  0  0  0  0  0
   30.6853   11.4630   -0.9622 C   0  0  0  0  0  0  0  0  0  0  0  0
   29.2523   10.8256   -0.8261 C   0  0  2  0  0  0  0  0  0  0  0  0
   28.4811   10.9980   -2.0661 N   0  0  0  0  0  0  0  0  0  0  0  0
   28.4755   11.4986    0.3231 C   0  0  2  0  0  0  0  0  0  0  0  0
   29.2626   11.3471    1.6870 C   0  0  2  0  0  0  0  0  0  0  0  0
   28.4391   12.0120    2.7162 O   0  0  0  0  0  0  0  0  0  0  0  0
   30.6997   12.0647    1.5420 C   0  0  1  0  0  0  0  0  0  0  0  0
   31.3728   11.9275    2.7535 O   0  0  0  0  0  0  0  0  0  0  0  0
   28.3883   11.7275    3.9729 C   0  0  1  0  0  0  0  0  0  0  0  0
   29.6767   12.0418    4.7890 C   0  0  2  0  0  0  0  0  0  0  0  0
   30.4827   10.9059    4.7800 O   0  0  0  0  0  0  0  0  0  0  0  0
   29.0548   12.2564    6.1062 C   0  0  1  0  0  0  0  0  0  0  0  0
   27.7129   13.0223    5.8912 C   0  0  2  0  0  0  0  0  0  0  0  0
   27.3029   12.3802    4.7089 O   0  0  0  0  0  0  0  0  0  0  0  0
   27.7446   14.5513    5.8955 C   0  0  0  0  0  0  0  0  0  0  0  0
   28.2181   14.9343    7.1729 O   0  0  0  0  0  0  0  0  0  0  0  0
   28.6062   10.8236    8.0477 C   0  0  2  0  0  0  0  0  0  0  0  0
   28.8572   10.8980    6.7080 O   0  0  0  0  0  0  0  0  0  0  0  0
   28.3698    9.4127    8.5000 C   0  0  1  0  0  0  0  0  0  0  0  0
   25.5765   12.7954   11.8151 N   0  0  0  0  0  0  0  0  0  0  0  0
   35.7787   12.1581    0.4689 O   0  0  0  0  0  0  0  0  0  0  0  0
   28.0366    9.4065   10.0424 C   0  0  2  0  0  0  0  0  0  0  0  0
   26.8064   10.3008   10.4242 C   0  0  1  0  0  0  0  0  0  0  0  0
   27.0613   11.6538    9.9882 C   0  0  1  0  0  0  0  0  0  0  0  0
   27.3851   11.6871    8.5065 O   0  0  0  0  0  0  0  0  0  0  0  0
   25.8170   12.5901   10.3167 C   0  0  0  0  0  0  0  0  0  0  0  0
   27.2687    8.8635    7.8128 N   0  0  0  0  0  0  0  0  0  0  0  0
   23.8707    9.0360   -0.9558 O   0  0  0  0  0  0  0  0  0  0  0  0
   36.0171   11.1167   -1.5357 C   0  0  0  0  0  0  0  0  0  0  0  0
   25.8832    9.9001    9.8722 O   0  0  0  0  0  0  0  0  0  0  0  0
   28.9438    9.8332   10.6065 O   0  0  0  0  0  0  0  0  0  0  0  0
   33.8170   11.1179   -0.6637 C   0  0  0  0  0  0  0  0  0  0  0  0
   37.0995   11.8627   -1.9453 C   0  0  0  0  0  0  0  0  0  0  0  0
   35.2190   11.9065   -0.8183 C   0  0  1  0  0  0  0  0  0  0  0  0
   23.1293   11.5515   -1.4289 F   0  0  0  0  0  0  0  0  0  0  0  0
  1  2  1  6  0  0  0
  1 10  1  0  0  0  0
  1  3  1  0  0  0  0
  3  4  1  1  0  0  0
  3  6  1  0  0  0  0
  5 46  2  0  0  0  0
  6 42  1  1  0  0  0
  6  8  1  0  0  0  0
  7 47  1  0  0  0  0
  8  9  1  0  0  0  0
  8 49  1  1  0  0  0
  9 10  1  0  0  0  0
  9 11  1  6  0  0  0
 11 12  1  0  0  0  0
 13 14  1  6  0  0  0
 13 15  1  0  0  0  0
 13 21  1  0  0  0  0
 14 46  1  0  0  0  0
 15 16  1  0  0  0  0
 16 17  1  6  0  0  0
 16 18  1  0  0  0  0
 18  2  1  1  0  0  0
 18 19  1  0  0  0  0
 19 20  1  1  0  0  0
 19 21  1  0  0  0  0
 21 22  1  1  0  0  0
 23 20  1  6  0  0  0
 23 24  1  0  0  0  0
 23 28  1  0  0  0  0
 24 25  1  1  0  0  0
 24 26  1  0  0  0  0
 26 27  1  0  0  0  0
 26 32  1  6  0  0  0
 27 28  1  0  0  0  0
 27 29  1  6  0  0  0
 29 30  1  0  0  0  0
 31 32  1  6  0  0  0
 31 33  1  0  0  0  0
 31 39  1  0  0  0  0
 33 36  1  0  0  0  0
 33 41  1  6  0  0  0
 34 40  1  0  0  0  0
 35 48  1  0  0  0  0
 36 37  1  0  0  0  0
 36 45  1  1  0  0  0
 37 38  1  0  0  0  0
 37 44  1  6  0  0  0
 38 39  1  0  0  0  0
 38 40  1  6  0  0  0
 43 47  1  0  0  0  0
 46 48  1  0  0  0  0
 48 43  1  6  0  0  0
M  END
>  <CHROM.1>
179.64999940,-147.10017174,-69.36119211,-74.43013684,151.40410684,68.27423522
164.12395061,-60.87543193,177.45313538,66.68344341,171.68473134,-73.94286855
-123.46960787,28.71067280,11.41804637,2.92991137,1.18432984,-0.02328946,-1.55785039

>  <Name>
ligand

>  <RI>
0

>  <Rbt.Current_Directory>
/home/itssahil/PROJECTS/Mol_Feturizer/New_Systems/rnas/4PDQ

>  <Rbt.Executable>
rbdock ($Id: //depot/dev/client3/rdock/2013.1/src/exe/rbdock.cxx#4 $)

>  <Rbt.Library>
libRbt.so (2013.1, Build901 2013/11/27)

>  <Rbt.Parameter_File>
/export/apps/rDock/src/rDock_2013.1_src/data/scripts/dock_solv.prm

>  <Rbt.Receptor>
prm/pocket_docking_5.prm

>  <SCORE>
-16.1484

>  <SCORE.INTER>
-7.75943

>  <SCORE.INTER.CONST>
1

>  <SCORE.INTER.POLAR>
0

>  <SCORE.INTER.ROT>
13

>  <SCORE.INTER.SOLV>
20.4605

>  <SCORE.INTER.VDW>
-24.2598

>  <SCORE.INTER.norm>
-0.158356

>  <SCORE.INTRA>
-8.38894

>  <SCORE.INTRA.DIHEDRAL>
-23.0548

>  <SCORE.INTRA.DIHEDRAL.0>
34.5115

>  <SCORE.INTRA.POLAR>
0

>  <SCORE.INTRA.POLAR.0>
0

>  <SCORE.INTRA.REPUL>
0

>  <SCORE.INTRA.REPUL.0>
0

>  <SCORE.INTRA.SOLV>
-2.29181

>  <SCORE.INTRA.SOLV.lig_0>
-122.812

>  <SCORE.INTRA.VDW>
4.28435

>  <SCORE.INTRA.VDW.0>
-7.46208

>  <SCORE.INTRA.norm>
-0.171203

>  <SCORE.RESTR>
0

>  <SCORE.RESTR.CAVITY>
0

>  <SCORE.RESTR.norm>
0

>  <SCORE.SYSTEM>
0

>  <SCORE.SYSTEM.CONST>
0

>  <SCORE.SYSTEM.DIHEDRAL>
0

>  <SCORE.SYSTEM.SOLV>
0

>  <SCORE.SYSTEM.norm>
0

>  <SCORE.heavy>
49

>  <SCORE.norm>
-0.329559

>  <RMSD>
2.312

$$$$
ligand
 OpenBabel11021811513D
libRbt.so/2013.1/901 2013/11/27
 49 52  0  0  0  0  0  0  0  0999 V2000
   25.3300   11.4086    0.1243 C   0  0  2  0  0  0  0  0  0  0  0  0
   26.5250   10.7371   -0.1459 O   0  0  0  0  0  0  0  0  0  0  0  0
   24.1097   10.5245   -0.3301 C   0  0  2  0  0  0  0  0  0  0  0  0
   24.1517    9.1979    0.4120 N   0  0  0  0  0  0  0  0  0  0  0  0
   31.5432   11.7825    2.4725 O   0  0  0  0  0  0  0  0  0  0  0  0
   24.1371   10.3152   -1.8622 C   0  0  2  0  0  0  0  0  0  0  0  0
   33.4731   10.2693    0.2282 N   0  0  0  0  0  0  0  0  0  0  0  0
   24.1141   11.6689   -2.5891 C   0  0  2  0  0  0  0  0  0  0  0  0
   25.3311   12.5907   -2.1543 C   0  0  2  0  0  0  0  0  0  0  0  0
   25.2942   12.7251   -0.6309 O   0  0  0  0  0  0  0  0  0  0  0  0
   25.2702   13.9802   -2.8523 C   0  0  0  0  0  0  0  0  0  0  0  0
   25.3342   13.9139   -4.2684 N   0  0  0  0  0  0  0  0  0  0  0  0
   30.1857    9.3257    1.7006 C   0  0  2  0  0  0  0  0  0  0  0  0
   31.5646    9.3542    2.2707 N   0  0  0  0  0  0  0  0  0  0  0  0
   30.2322   10.1406    0.3185 C   0  0  0  0  0  0  0  0  0  0  0  0
   28.8151   10.1397   -0.3669 C   0  0  2  0  0  0  0  0  0  0  0  0
   28.8398   10.9008   -1.6248 N   0  0  0  0  0  0  0  0  0  0  0  0
   27.7701   10.7834    0.5663 C   0  0  2  0  0  0  0  0  0  0  0  0
   27.7020   10.0051    1.9420 C   0  0  2  0  0  0  0  0  0  0  0  0
   26.6763   10.6890    2.7541 O   0  0  0  0  0  0  0  0  0  0  0  0
   29.1476   10.0770    2.6537 C   0  0  1  0  0  0  0  0  0  0  0  0
   29.0648    9.3941    3.8647 O   0  0  0  0  0  0  0  0  0  0  0  0
   26.4594   10.5403    4.0165 C   0  0  1  0  0  0  0  0  0  0  0  0
   25.2133   11.2848    4.5799 C   0  0  2  0  0  0  0  0  0  0  0  0
   25.6207   12.5443    5.0130 O   0  0  0  0  0  0  0  0  0  0  0  0
   24.9169   10.3907    5.7116 C   0  0  1  0  0  0  0  0  0  0  0  0
   25.1648    8.9219    5.2484 C   0  0  2  0  0  0  0  0  0  0  0  0
   26.3035    9.1514    4.4553 O   0  0  0  0  0  0  0  0  0  0  0  0
   24.0009    8.1569    4.6166 C   0  0  0  0  0  0  0  0  0  0  0  0
   23.0010    8.0627    5.6136 O   0  0  0  0  0  0  0  0  0  0  0  0
   25.5950   10.2797    8.0677 C   0  0  2  0  0  0  0  0  0  0  0  0
   25.8240   10.8072    6.8296 O   0  0  0  0  0  0  0  0  0  0  0  0
   26.6034   10.7473    9.0755 C   0  0  1  0  0  0  0  0  0  0  0  0
   26.6169    5.8982    8.7642 N   0  0  0  0  0  0  0  0  0  0  0  0
   33.9805    9.1890    3.3244 O   0  0  0  0  0  0  0  0  0  0  0  0
   26.3101   10.0614   10.4660 C   0  0  2  0  0  0  0  0  0  0  0  0
   26.3048    8.4945   10.4063 C   0  0  1  0  0  0  0  0  0  0  0  0
   25.3212    8.0689    9.4383 C   0  0  1  0  0  0  0  0  0  0  0  0
   25.5809    8.7156    8.0909 O   0  0  0  0  0  0  0  0  0  0  0  0
   25.3118    6.4824    9.3122 C   0  0  0  0  0  0  0  0  0  0  0  0
   27.9004   10.3747    8.6692 N   0  0  0  0  0  0  0  0  0  0  0  0
   23.2209    9.7061   -2.1717 O   0  0  0  0  0  0  0  0  0  0  0  0
   34.4291   11.2134    2.3968 C   0  0  0  0  0  0  0  0  0  0  0  0
   27.3416    8.1424   10.0620 O   0  0  0  0  0  0  0  0  0  0  0  0
   25.2606   10.3831   10.8098 O   0  0  0  0  0  0  0  0  0  0  0  0
   32.1293   10.7000    2.6153 C   0  0  0  0  0  0  0  0  0  0  0  0
   34.4670   10.5164    1.2099 C   0  0  0  0  0  0  0  0  0  0  0  0
   33.6173   10.5647    3.2308 C   0  0  1  0  0  0  0  0  0  0  0  0
   22.9206   12.3511   -2.2936 F   0  0  0  0  0  0  0  0  0  0  0  0
  1  2  1  6  0  0  0
  1 10  1  0  0  0  0
  1  3  1  0  0  0  0
  3  4  1  1  0  0  0
  3  6  1  0  0  0  0
  5 46  2  0  0  0  0
  6 42  1  6  0  0  0
  6  8  1  0  0  0  0
  7 47  1  0  0  0  0
  8  9  1  0  0  0  0
  8 49  1  1  0  0  0
  9 10  1  0  0  0  0
  9 11  1  6  0  0  0
 11 12  1  0  0  0  0
 13 14  1  1  0  0  0
 13 15  1  0  0  0  0
 13 21  1  0  0  0  0
 14 46  1  0  0  0  0
 15 16  1  0  0  0  0
 16 17  1  6  0  0  0
 16 18  1  0  0  0  0
 18  2  1  6  0  0  0
 18 19  1  0  0  0  0
 19 20  1  1  0  0  0
 19 21  1  0  0  0  0
 21 22  1  1  0  0  0
 23 20  1  6  0  0  0
 23 24  1  0  0  0  0
 23 28  1  0  0  0  0
 24 25  1  1  0  0  0
 24 26  1  0  0  0  0
 26 27  1  0  0  0  0
 26 32  1  1  0  0  0
 27 28  1  0  0  0  0
 27 29  1  6  0  0  0
 29 30  1  0  0  0  0
 31 32  1  6  0  0  0
 31 33  1  0  0  0  0
 31 39  1  0  0  0  0
 33 36  1  0  0  0  0
 33 41  1  6  0  0  0
 34 40  1  0  0  0  0
 35 48  1  0  0  0  0
 36 37  1  0  0  0  0
 36 45  1  6  0  0  0
 37 38  1  0  0  0  0
 37 44  1  6  0  0  0
 38 39  1  0  0  0  0
 38 40  1  6  0  0  0
 43 47  1  0  0  0  0
 46 48  1  0  0  0  0
 48 43  1  6  0  0  0
M  END
>  <CHROM.1>
-148.25378295,-166.10316226,-60.92764043,61.93447063,-166.88783195,-173.97332774
169.35011928,-62.45749956,178.09285170,-64.42930109,66.35327435,51.84307449
177.12516682,27.18112591,10.24623835,3.26333847,1.51090518,0.02239787,-1.31870598

>  <Name>
ligand

>  <RI>
0

>  <Rbt.Current_Directory>
/home/itssahil/PROJECTS/Mol_Feturizer/New_Systems/rnas/4PDQ

>  <Rbt.Executable>
rbdock ($Id: //depot/dev/client3/rdock/2013.1/src/exe/rbdock.cxx#4 $)

>  <Rbt.Library>
libRbt.so (2013.1, Build901 2013/11/27)

>  <Rbt.Parameter_File>
/export/apps/rDock/src/rDock_2013.1_src/data/scripts/dock_solv.prm

>  <Rbt.Receptor>
prm/pocket_docking_3.prm

>  <SCORE>
-8.25045

>  <SCORE.INTER>
-4.29675

>  <SCORE.INTER.CONST>
1

>  <SCORE.INTER.POLAR>
0

>  <SCORE.INTER.ROT>
13

>  <SCORE.INTER.SOLV>
20.6098

>  <SCORE.INTER.VDW>
-22.0011

>  <SCORE.INTER.norm>
-0.0876887

>  <SCORE.INTRA>
-3.95551

>  <SCORE.INTRA.DIHEDRAL>
-25.0858

>  <SCORE.INTRA.DIHEDRAL.0>
34.5115

>  <SCORE.INTRA.POLAR>
0

>  <SCORE.INTRA.POLAR.0>
0

>  <SCORE.INTRA.REPUL>
0

>  <SCORE.INTRA.REPUL.0>
0

>  <SCORE.INTRA.SOLV>
4.6487

>  <SCORE.INTRA.SOLV.lig_0>
-122.812

>  <SCORE.INTRA.VDW>
6.26304

>  <SCORE.INTRA.VDW.0>
-7.46208

>  <SCORE.INTRA.norm>
-0.0807247

>  <SCORE.RESTR>
0.00180697

>  <SCORE.RESTR.CAVITY>
0.00180697

>  <SCORE.RESTR.norm>
3.68769e-05

>  <SCORE.SYSTEM>
0

>  <SCORE.SYSTEM.CONST>
0

>  <SCORE.SYSTEM.DIHEDRAL>
0

>  <SCORE.SYSTEM.SOLV>
0

>  <SCORE.SYSTEM.norm>
0

>  <SCORE.heavy>
49

>  <SCORE.norm>
-0.168377

>  <RMSD>
2.363

$$$$
ligand
 OpenBabel11021811513D
libRbt.so/2013.1/901 2013/11/27
 49 52  0  0  0  0  0  0  0  0999 V2000
   27.2039   10.1588   -0.5196 C   0  0  2  0  0  0  0  0  0  0  0  0
   27.7396   11.2936    0.0945 O   0  0  0  0  0  0  0  0  0  0  0  0
   25.7895   10.4982   -1.1209 C   0  0  2  0  0  0  0  0  0  0  0  0
   25.9343   11.6276   -2.1287 N   0  0  0  0  0  0  0  0  0  0  0  0
   33.8879    8.9688    0.0458 O   0  0  0  0  0  0  0  0  0  0  0  0
   24.8002   10.8721    0.0075 C   0  0  2  0  0  0  0  0  0  0  0  0
   35.7243   13.1453   -0.6904 N   0  0  0  0  0  0  0  0  0  0  0  0
   24.6859    9.7244    1.0230 C   0  0  2  0  0  0  0  0  0  0  0  0
   26.0955    9.3519    1.6506 C   0  0  2  0  0  0  0  0  0  0  0  0
   27.0528    9.0425    0.4981 O   0  0  0  0  0  0  0  0  0  0  0  0
   25.9808    8.1528    2.6358 C   0  0  0  0  0  0  0  0  0  0  0  0
   24.8747    8.2413    3.5206 N   0  0  0  0  0  0  0  0  0  0  0  0
   31.7862   10.4537    1.4069 C   0  0  2  0  0  0  0  0  0  0  0  0
   33.2395   10.6603    1.6756 N   0  0  0  0  0  0  0  0  0  0  0  0
   31.5056   10.9764   -0.0845 C   0  0  0  0  0  0  0  0  0  0  0  0
   29.9909   10.7718   -0.4618 C   0  0  2  0  0  0  0  0  0  0  0  0
   29.7167   11.2657   -1.8193 N   0  0  0  0  0  0  0  0  0  0  0  0
   29.0870   11.5398    0.5231 C   0  0  2  0  0  0  0  0  0  0  0  0
   29.3421   11.0507    2.0059 C   0  0  2  0  0  0  0  0  0  0  0  0
   28.4310   11.8347    2.8630 O   0  0  0  0  0  0  0  0  0  0  0  0
   30.8834   11.3313    2.3894 C   0  0  1  0  0  0  0  0  0  0  0  0
   31.0855   10.9018    3.6988 O   0  0  0  0  0  0  0  0  0  0  0  0
   28.2056   11.6598    4.1205 C   0  0  1  0  0  0  0  0  0  0  0  0
   27.5091   12.8443    4.8529 C   0  0  2  0  0  0  0  0  0  0  0  0
   28.4995   13.6807    5.3623 O   0  0  0  0  0  0  0  0  0  0  0  0
   26.8416   12.0801    5.9199 C   0  0  1  0  0  0  0  0  0  0  0  0
   26.3155   10.7460    5.3059 C   0  0  2  0  0  0  0  0  0  0  0  0
   27.3948   10.4832    4.4431 O   0  0  0  0  0  0  0  0  0  0  0  0
   24.9077   10.7307    4.7085 C   0  0  0  0  0  0  0  0  0  0  0  0
   24.0564   11.2993    5.6856 O   0  0  0  0  0  0  0  0  0  0  0  0
   27.4546   11.3061    8.1668 C   0  0  2  0  0  0  0  0  0  0  0  0
   27.8678   11.8611    6.9900 O   0  0  0  0  0  0  0  0  0  0  0  0
   28.5935   11.0903    9.1194 C   0  0  1  0  0  0  0  0  0  0  0  0
   24.9221    7.1963   10.1740 N   0  0  0  0  0  0  0  0  0  0  0  0
   36.4575    8.9584    1.5196 O   0  0  0  0  0  0  0  0  0  0  0  0
   28.0538   10.4018   10.4327 C   0  0  2  0  0  0  0  0  0  0  0  0
   27.3129    9.0444   10.1729 C   0  0  1  0  0  0  0  0  0  0  0  0
   26.2168    9.2792    9.2625 C   0  0  1  0  0  0  0  0  0  0  0  0
   26.7098    9.9419    7.9900 O   0  0  0  0  0  0  0  0  0  0  0  0
   25.4613    7.9172    8.9352 C   0  0  0  0  0  0  0  0  0  0  0  0
   29.5522   10.2351    8.5398 N   0  0  0  0  0  0  0  0  0  0  0  0
   23.7723   11.0740   -0.4496 O   0  0  0  0  0  0  0  0  0  0  0  0
   36.2394   10.8320    0.2540 C   0  0  0  0  0  0  0  0  0  0  0  0
   28.0533    8.3165    9.6834 O   0  0  0  0  0  0  0  0  0  0  0  0
   27.2881   11.1090   10.9191 O   0  0  0  0  0  0  0  0  0  0  0  0
   34.2013    9.8146    0.8955 C   0  0  0  0  0  0  0  0  0  0  0  0
   35.7284   12.1104    0.2801 C   0  0  0  0  0  0  0  0  0  0  0  0
   35.7300   10.1626    1.2873 C   0  0  1  0  0  0  0  0  0  0  0  0
   24.1698    8.5777    0.3937 F   0  0  0  0  0  0  0  0  0  0  0  0
  1  2  1  1  0  0  0
  1 10  1  0  0  0  0
  1  3  1  0  0  0  0
  3  4  1  6  0  0  0
  3  6  1  0  0  0  0
  5 46  2  0  0  0  0
  6 42  1  6  0  0  0
  6  8  1  0  0  0  0
  7 47  1  0  0  0  0
  8  9  1  0  0  0  0
  8 49  1  6  0  0  0
  9 10  1  0  0  0  0
  9 11  1  1  0  0  0
 11 12  1  0  0  0  0
 13 14  1  1  0  0  0
 13 15  1  0  0  0  0
 13 21  1  0  0  0  0
 14 46  1  0  0  0  0
 15 16  1  0  0  0  0
 16 17  1  6  0  0  0
 16 18  1  0  0  0  0
 18  2  1  6  0  0  0
 18 19  1  0  0  0  0
 19 20  1  1  0  0  0
 19 21  1  0  0  0  0
 21 22  1  1  0  0  0
 23 20  1  6  0  0  0
 23 24  1  0  0  0  0
 23 28  1  0  0  0  0
 24 25  1  1  0  0  0
 24 26  1  0  0  0  0
 26 27  1  0  0  0  0
 26 32  1  1  0  0  0
 27 28  1  0  0  0  0
 27 29  1  6  0  0  0
 29 30  1  0  0  0  0
 31 32  1  6  0  0  0
 31 33  1  0  0  0  0
 31 39  1  0  0  0  0
 33 36  1  0  0  0  0
 33 41  1  6  0  0  0
 34 40  1  0  0  0  0
 35 48  1  0  0  0  0
 36 37  1  0  0  0  0
 36 45  1  6  0  0  0
 37 38  1  0  0  0  0
 37 44  1  6  0  0  0
 38 39  1  0  0  0  0
 38 40  1  6  0  0  0
 43 47  1  0  0  0  0
 46 48  1  0  0  0  0
 48 43  1  6  0  0  0
M  END
>  <CHROM.1>
-165.72003781,31.92052083,-44.42196781,-67.95612116,171.97101674,164.12579240
172.52659048,-49.90724149,177.48773057,57.45635452,-166.32748856,-165.43622428
-48.08631782,28.57993184,10.48933711,3.52042185,0.92079075,-0.07606714,-1.51616136

>  <Name>
ligand

>  <RI>
0

>  <Rbt.Current_Directory>
/home/itssahil/PROJECTS/Mol_Feturizer/New_Systems/rnas/4PDQ

>  <Rbt.Executable>
rbdock ($Id: //depot/dev/client3/rdock/2013.1/src/exe/rbdock.cxx#4 $)

>  <Rbt.Library>
libRbt.so (2013.1, Build901 2013/11/27)

>  <Rbt.Parameter_File>
/export/apps/rDock/src/rDock_2013.1_src/data/scripts/dock_solv.prm

>  <Rbt.Receptor>
prm/pocket_docking_2.prm

>  <SCORE>
-4.96926

>  <SCORE.INTER>
2.5747

>  <SCORE.INTER.CONST>
1

>  <SCORE.INTER.POLAR>
0

>  <SCORE.INTER.ROT>
13

>  <SCORE.INTER.SOLV>
27.2101

>  <SCORE.INTER.VDW>
-19.6202

>  <SCORE.INTER.norm>
0.0525449

>  <SCORE.INTRA>
-8.34163

>  <SCORE.INTRA.DIHEDRAL>
-23.5006

>  <SCORE.INTRA.DIHEDRAL.0>
34.5115

>  <SCORE.INTRA.POLAR>
0

>  <SCORE.INTRA.POLAR.0>
0

>  <SCORE.INTRA.REPUL>
0

>  <SCORE.INTRA.REPUL.0>
0

>  <SCORE.INTRA.SOLV>
1.34227

>  <SCORE.INTRA.SOLV.lig_0>
-122.812

>  <SCORE.INTRA.VDW>
2.73753

>  <SCORE.INTRA.VDW.0>
-7.46208

>  <SCORE.INTRA.norm>
-0.170237

>  <SCORE.RESTR>
0.797664

>  <SCORE.RESTR.CAVITY>
0.797664

>  <SCORE.RESTR.norm>
0.0162789

>  <SCORE.SYSTEM>
0

>  <SCORE.SYSTEM.CONST>
0

>  <SCORE.SYSTEM.DIHEDRAL>
0

>  <SCORE.SYSTEM.SOLV>
0

>  <SCORE.SYSTEM.norm>
0

>  <SCORE.heavy>
49

>  <SCORE.norm>
-0.101414

>  <RMSD>
2.370

$$$$
ligand
 OpenBabel11021811513D
libRbt.so/2013.1/901 2013/11/27
 49 52  0  0  0  0  0  0  0  0999 V2000
   25.6353   11.2246    0.2693 C   0  0  2  0  0  0  0  0  0  0  0  0
   26.9239   10.8163   -0.0842 O   0  0  0  0  0  0  0  0  0  0  0  0
   24.5972   10.1112   -0.1306 C   0  0  2  0  0  0  0  0  0  0  0  0
   24.9566    8.8161    0.5806 N   0  0  0  0  0  0  0  0  0  0  0  0
   33.4221    9.6010    0.2991 O   0  0  0  0  0  0  0  0  0  0  0  0
   24.5727    9.9240   -1.6656 C   0  0  2  0  0  0  0  0  0  0  0  0
   38.0359   11.9348   -0.4242 N   0  0  0  0  0  0  0  0  0  0  0  0
   24.2272   11.2494   -2.3623 C   0  0  2  0  0  0  0  0  0  0  0  0
   25.2531   12.3991   -1.9811 C   0  0  2  0  0  0  0  0  0  0  0  0
   25.2833   12.5112   -0.4557 O   0  0  0  0  0  0  0  0  0  0  0  0
   24.8651   13.7515   -2.6459 C   0  0  0  0  0  0  0  0  0  0  0  0
   24.9607   13.7427   -4.0618 N   0  0  0  0  0  0  0  0  0  0  0  0
   31.0277   10.9099    1.3132 C   0  0  2  0  0  0  0  0  0  0  0  0
   32.4075   11.4203    1.5635 N   0  0  0  0  0  0  0  0  0  0  0  0
   30.6829   11.2229   -0.2229 C   0  0  0  0  0  0  0  0  0  0  0  0
   29.2449   10.6922   -0.5817 C   0  0  2  0  0  0  0  0  0  0  0  0
   28.9092   10.9910   -1.9816 N   0  0  0  0  0  0  0  0  0  0  0  0
   28.1887   11.3600    0.3213 C   0  0  2  0  0  0  0  0  0  0  0  0
   28.5021   11.0741    1.8454 C   0  0  2  0  0  0  0  0  0  0  0  0
   27.4385   11.7440    2.6195 O   0  0  0  0  0  0  0  0  0  0  0  0
   29.9515   11.6848    2.2030 C   0  0  1  0  0  0  0  0  0  0  0  0
   30.2051   11.4302    3.5485 O   0  0  0  0  0  0  0  0  0  0  0  0
   26.9388   11.3609    3.7448 C   0  0  1  0  0  0  0  0  0  0  0  0
   26.0621   10.0751    3.6915 C   0  0  2  0  0  0  0  0  0  0  0  0
   24.7410   10.4606    3.4768 O   0  0  0  0  0  0  0  0  0  0  0  0
   26.2743    9.6078    5.0716 C   0  0  1  0  0  0  0  0  0  0  0  0
   27.7650    9.8695    5.4494 C   0  0  2  0  0  0  0  0  0  0  0  0
   27.9216   11.1079    4.8010 O   0  0  0  0  0  0  0  0  0  0  0  0
   28.7899    8.7750    5.1488 C   0  0  0  0  0  0  0  0  0  0  0  0
   28.8326    8.6484    3.7399 O   0  0  0  0  0  0  0  0  0  0  0  0
   24.8974    9.7956    7.0945 C   0  0  2  0  0  0  0  0  0  0  0  0
   25.3150   10.3744    5.9308 O   0  0  0  0  0  0  0  0  0  0  0  0
   24.1074   10.7458    7.9455 C   0  0  1  0  0  0  0  0  0  0  0  0
   26.6054    7.2215   11.3100 N   0  0  0  0  0  0  0  0  0  0  0  0
   35.4528   10.8148    2.5649 O   0  0  0  0  0  0  0  0  0  0  0  0
   23.7024   10.0294    9.2919 C   0  0  2  0  0  0  0  0  0  0  0  0
   24.9252    9.4783   10.1042 C   0  0  1  0  0  0  0  0  0  0  0  0
   25.6632    8.5601    9.2689 C   0  0  1  0  0  0  0  0  0  0  0  0
   26.0647    9.2254    7.9661 O   0  0  0  0  0  0  0  0  0  0  0  0
   26.9415    8.0080   10.0398 C   0  0  0  0  0  0  0  0  0  0  0  0
   24.8920   11.8713    8.2682 N   0  0  0  0  0  0  0  0  0  0  0  0
   23.7839    9.1413   -1.9332 O   0  0  0  0  0  0  0  0  0  0  0  0
   35.7862   10.9937    0.3250 C   0  0  0  0  0  0  0  0  0  0  0  0
   25.6055   10.3616   10.3770 O   0  0  0  0  0  0  0  0  0  0  0  0
   23.0429    9.1236    9.0312 O   0  0  0  0  0  0  0  0  0  0  0  0
   33.5402   10.6317    0.9770 C   0  0  0  0  0  0  0  0  0  0  0  0
   36.9001   11.7980    0.4149 C   0  0  0  0  0  0  0  0  0  0  0  0
   34.9632   11.3150    1.3225 C   0  0  1  0  0  0  0  0  0  0  0  0
   22.9394   11.6682   -1.9835 F   0  0  0  0  0  0  0  0  0  0  0  0
  1  2  1  6  0  0  0
  1 10  1  0  0  0  0
  1  3  1  0  0  0  0
  3  4  1  1  0  0  0
  3  6  1  0  0  0  0
  5 46  2  0  0  0  0
  6 42  1  1  0  0  0
  6  8  1  0  0  0  0
  7 47  1  0  0  0  0
  8  9  1  0  0  0  0
  8 49  1  1  0  0  0
  9 10  1  0  0  0  0
  9 11  1  6  0  0  0
 11 12  1  0  0  0  0
 13 14  1  1  0  0  0
 13 15  1  0  0  0  0
 13 21  1  0  0  0  0
 14 46  1  0  0  0  0
 15 16  1  0  0  0  0
 16 17  1  6  0  0  0
 16 18  1  0  0  0  0
 18  2  1  6  0  0  0
 18 19  1  0  0  0  0
 19 20  1  1  0  0  0
 19 21  1  0  0  0  0
 21 22  1  1  0  0  0
 23 20  1  6  0  0  0
 23 24  1  0  0  0  0
 23 28  1  0  0  0  0
 24 25  1  1  0  0  0
 24 26  1  0  0  0  0
 26 27  1  0  0  0  0
 26 32  1  1  0  0  0
 27 28  1  0  0  0  0
 27 29  1  6  0  0  0
 29 30  1  0  0  0  0
 31 32  1  6  0  0  0
 31 33  1  0  0  0  0
 31 39  1  0  0  0  0
 33 36  1  0  0  0  0
 33 41  1  1  0  0  0
 34 40  1  0  0  0  0
 35 48  1  0  0  0  0
 36 37  1  0  0  0  0
 36 45  1  6  0  0  0
 37 38  1  0  0  0  0
 37 44  1  6  0  0  0
 38 39  1  0  0  0  0
 38 40  1  1  0  0  0
 43 47  1  0  0  0  0
 46 48  1  0  0  0  0
 48 43  1  6  0  0  0
M  END
>  <CHROM.1>
-165.81421168,-169.42976268,-65.84878699,-73.51446550,147.83156651,-69.83080244
153.26583538,64.83608339,171.60342508,61.63811585,-175.67349166,-74.33839404
-92.16282855,27.75301104,10.60515212,2.88274809,0.96365145,-0.00617600,-1.36665179

>  <Name>
ligand

>  <RI>
0

>  <Rbt.Current_Directory>
/home/itssahil/PROJECTS/Mol_Feturizer/New_Systems/rnas/4PDQ

>  <Rbt.Executable>
rbdock ($Id: //depot/dev/client3/rdock/2013.1/src/exe/rbdock.cxx#4 $)

>  <Rbt.Library>
libRbt.so (2013.1, Build901 2013/11/27)

>  <Rbt.Parameter_File>
/export/apps/rDock/src/rDock_2013.1_src/data/scripts/dock_solv.prm

>  <Rbt.Receptor>
prm/pocket_docking_3.prm

>  <SCORE>
-17.8416

>  <SCORE.INTER>
-7.22663

>  <SCORE.INTER.CONST>
1

>  <SCORE.INTER.POLAR>
0

>  <SCORE.INTER.ROT>
13

>  <SCORE.INTER.SOLV>
20.2918

>  <SCORE.INTER.VDW>
-23.8483

>  <SCORE.INTER.norm>
-0.147482

>  <SCORE.INTRA>
-10.615

>  <SCORE.INTRA.DIHEDRAL>
-22.4806

>  <SCORE.INTRA.DIHEDRAL.0>
34.5115

>  <SCORE.INTRA.POLAR>
0

>  <SCORE.INTRA.POLAR.0>
0

>  <SCORE.INTRA.REPUL>
0

>  <SCORE.INTRA.REPUL.0>
0

>  <SCORE.INTRA.SOLV>
-1.05945

>  <SCORE.INTRA.SOLV.lig_0>
-122.812

>  <SCORE.INTRA.VDW>
1.15501

>  <SCORE.INTRA.VDW.0>
-7.46208

>  <SCORE.INTRA.norm>
-0.216633

>  <SCORE.RESTR>
0

>  <SCORE.RESTR.CAVITY>
0

>  <SCORE.RESTR.norm>
0

>  <SCORE.SYSTEM>
0

>  <SCORE.SYSTEM.CONST>
0

>  <SCORE.SYSTEM.DIHEDRAL>
0

>  <SCORE.SYSTEM.SOLV>
0

>  <SCORE.SYSTEM.norm>
0

>  <SCORE.heavy>
49

>  <SCORE.norm>
-0.364115

>  <RMSD>
2.458

$$$$
ligand
 OpenBabel11021811513D
libRbt.so/2013.1/901 2013/11/27
 49 52  0  0  0  0  0  0  0  0999 V2000
   26.0297   11.5856    0.3533 C   0  0  2  0  0  0  0  0  0  0  0  0
   27.2436   11.0099   -0.0299 O   0  0  0  0  0  0  0  0  0  0  0  0
   24.8641   10.5462    0.1581 C   0  0  2  0  0  0  0  0  0  0  0  0
   25.1525    9.3106    0.9962 N   0  0  0  0  0  0  0  0  0  0  0  0
   33.6245    9.8191   -1.2808 O   0  0  0  0  0  0  0  0  0  0  0  0
   24.7060   10.1888   -1.3383 C   0  0  2  0  0  0  0  0  0  0  0  0
   38.3579   11.1981    1.3237 N   0  0  0  0  0  0  0  0  0  0  0  0
   24.4353   11.4546   -2.1665 C   0  0  2  0  0  0  0  0  0  0  0  0
   25.5908   12.5290   -1.9934 C   0  0  2  0  0  0  0  0  0  0  0  0
   25.7467   12.8105   -0.4978 O   0  0  0  0  0  0  0  0  0  0  0  0
   25.2828   13.8295   -2.7906 C   0  0  0  0  0  0  0  0  0  0  0  0
   25.2601   13.6476   -4.1979 N   0  0  0  0  0  0  0  0  0  0  0  0
   31.5643   11.1038    0.3253 C   0  0  2  0  0  0  0  0  0  0  0  0
   32.9636   11.6134    0.2297 N   0  0  0  0  0  0  0  0  0  0  0  0
   30.8558   11.4106   -1.0820 C   0  0  0  0  0  0  0  0  0  0  0  0
   29.3735   10.8804   -1.0772 C   0  0  2  0  0  0  0  0  0  0  0  0
   28.7070   11.1736   -2.3546 N   0  0  0  0  0  0  0  0  0  0  0  0
   28.5693   11.5536    0.0528 C   0  0  2  0  0  0  0  0  0  0  0  0
   29.2444   11.2738    1.4559 C   0  0  2  0  0  0  0  0  0  0  0  0
   28.4016   11.9485    2.4627 O   0  0  0  0  0  0  0  0  0  0  0  0
   30.7374   11.8840    1.4469 C   0  0  1  0  0  0  0  0  0  0  0  0
   31.3110   11.6348    2.6913 O   0  0  0  0  0  0  0  0  0  0  0  0
   28.2547   11.6169    3.7002 C   0  0  1  0  0  0  0  0  0  0  0  0
   27.7657   10.1608    3.9557 C   0  0  2  0  0  0  0  0  0  0  0  0
   26.3742   10.1753    4.0134 O   0  0  0  0  0  0  0  0  0  0  0  0
   28.3627    9.9596    5.2865 C   0  0  1  0  0  0  0  0  0  0  0  0
   29.7710   10.6303    5.2940 C   0  0  2  0  0  0  0  0  0  0  0  0
   29.4566   11.7649    4.5244 O   0  0  0  0  0  0  0  0  0  0  0  0
   30.9742    9.7903    4.8632 C   0  0  0  0  0  0  0  0  0  0  0  0
   31.1299    8.7866    5.8487 O   0  0  0  0  0  0  0  0  0  0  0  0
   26.4325    9.7939    6.7934 C   0  0  2  0  0  0  0  0  0  0  0  0
   27.4195   10.5800    6.2723 O   0  0  0  0  0  0  0  0  0  0  0  0
   25.4948   10.5719    7.6689 C   0  0  1  0  0  0  0  0  0  0  0  0
   25.6028    5.4442    9.5705 N   0  0  0  0  0  0  0  0  0  0  0  0
   35.2548   12.9297   -0.8170 O   0  0  0  0  0  0  0  0  0  0  0  0
   24.4141    9.5952    8.2759 C   0  0  2  0  0  0  0  0  0  0  0  0
   25.0288    8.4003    9.0841 C   0  0  1  0  0  0  0  0  0  0  0  0
   25.9187    7.6620    8.2189 C   0  0  1  0  0  0  0  0  0  0  0  0
   26.9685    8.5797    7.6214 O   0  0  0  0  0  0  0  0  0  0  0  0
   26.6008    6.4626    9.0120 C   0  0  0  0  0  0  0  0  0  0  0  0
   26.2047   11.1564    8.7370 N   0  0  0  0  0  0  0  0  0  0  0  0
   23.8290    9.4657   -1.4583 O   0  0  0  0  0  0  0  0  0  0  0  0
   35.9345   11.2291    0.5269 C   0  0  0  0  0  0  0  0  0  0  0  0
   25.6336    8.8297    9.9601 O   0  0  0  0  0  0  0  0  0  0  0  0
   23.8187    9.1349    7.4060 O   0  0  0  0  0  0  0  0  0  0  0  0
   33.9110   10.8381   -0.6364 C   0  0  0  0  0  0  0  0  0  0  0  0
   37.2931   11.4222    0.4132 C   0  0  0  0  0  0  0  0  0  0  0  0
   35.3765   11.5190   -0.6478 C   0  0  1  0  0  0  0  0  0  0  0  0
   23.2250   12.0436   -1.7595 F   0  0  0  0  0  0  0  0  0  0  0  0
  1  2  1  6  0  0  0
  1 10  1  0  0  0  0
  1  3  1  0  0  0  0
  3  4  1  1  0  0  0
  3  6  1  0  0  0  0
  5 46  2  0  0  0  0
  6 42  1  1  0  0  0
  6  8  1  0  0  0  0
  7 47  1  0  0  0  0
  8  9  1  0  0  0  0
  8 49  1  1  0  0  0
  9 10  1  0  0  0  0
  9 11  1  6  0  0  0
 11 12  1  0  0  0  0
 13 14  1  6  0  0  0
 13 15  1  0  0  0  0
 13 21  1  0  0  0  0
 14 46  1  0  0  0  0
 15 16  1  0  0  0  0
 16 17  1  6  0  0  0
 16 18  1  0  0  0  0
 18  2  1  1  0  0  0
 18 19  1  0  0  0  0
 19 20  1  1  0  0  0
 19 21  1  0  0  0  0
 21 22  1  1  0  0  0
 23 20  1  6  0  0  0
 23 24  1  0  0  0  0
 23 28  1  0  0  0  0
 24 25  1  1  0  0  0
 24 26  1  0  0  0  0
 26 27  1  0  0  0  0
 26 32  1  1  0  0  0
 27 28  1  0  0  0  0
 27 29  1  6  0  0  0
 29 30  1  0  0  0  0
 31 32  1  1  0  0  0
 31 33  1  0  0  0  0
 31 39  1  0  0  0  0
 33 36  1  0  0  0  0
 33 41  1  1  0  0  0
 34 40  1  0  0  0  0
 35 48  1  0  0  0  0
 36 37  1  0  0  0  0
 36 45  1  6  0  0  0
 37 38  1  0  0  0  0
 37 44  1  1  0  0  0
 38 39  1  0  0  0  0
 38 40  1  1  0  0  0
 43 47  1  0  0  0  0
 46 48  1  0  0  0  0
 48 43  1  1  0  0  0
M  END
>  <CHROM.1>
-175.84155283,-152.38707403,-65.40928859,-72.16746909,152.38913264,-56.48540447
89.88601553,-66.69562497,-175.00124284,60.51383282,-176.22962340,-78.67907012
133.95585021,28.42414200,10.63681841,2.54343693,0.96126874,-0.02493857,-1.26952404

>  <Name>
ligand

>  <RI>
0

>  <Rbt.Current_Directory>
/home/itssahil/PROJECTS/Mol_Feturizer/New_Systems/rnas/4PDQ

>  <Rbt.Executable>
rbdock ($Id: //depot/dev/client3/rdock/2013.1/src/exe/rbdock.cxx#4 $)

>  <Rbt.Library>
libRbt.so (2013.1, Build901 2013/11/27)

>  <Rbt.Parameter_File>
/export/apps/rDock/src/rDock_2013.1_src/data/scripts/dock_solv.prm

>  <Rbt.Receptor>
prm/pocket_docking_4.prm

>  <SCORE>
-14.2407

>  <SCORE.INTER>
-4.50267

>  <SCORE.INTER.CONST>
1

>  <SCORE.INTER.POLAR>
0

>  <SCORE.INTER.ROT>
13

>  <SCORE.INTER.SOLV>
20.7414

>  <SCORE.INTER.VDW>
-22.1822

>  <SCORE.INTER.norm>
-0.0918912

>  <SCORE.INTRA>
-9.738

>  <SCORE.INTRA.DIHEDRAL>
-21.6833

>  <SCORE.INTRA.DIHEDRAL.0>
34.5115

>  <SCORE.INTRA.POLAR>
0

>  <SCORE.INTRA.POLAR.0>
0

>  <SCORE.INTRA.REPUL>
0

>  <SCORE.INTRA.REPUL.0>
0

>  <SCORE.INTRA.SOLV>
-1.53057

>  <SCORE.INTRA.SOLV.lig_0>
-122.812

>  <SCORE.INTRA.VDW>
1.86896

>  <SCORE.INTRA.VDW.0>
-7.46208

>  <SCORE.INTRA.norm>
-0.198735

>  <SCORE.RESTR>
0

>  <SCORE.RESTR.CAVITY>
0

>  <SCORE.RESTR.norm>
0

>  <SCORE.SYSTEM>
0

>  <SCORE.SYSTEM.CONST>
0

>  <SCORE.SYSTEM.DIHEDRAL>
0

>  <SCORE.SYSTEM.SOLV>
0

>  <SCORE.SYSTEM.norm>
0

>  <SCORE.heavy>
49

>  <SCORE.norm>
-0.290626

>  <RMSD>
2.463

$$$$
ligand
 OpenBabel11021811513D
libRbt.so/2013.1/901 2013/11/27
 49 52  0  0  0  0  0  0  0  0999 V2000
   26.5422   12.1361    0.1709 C   0  0  2  0  0  0  0  0  0  0  0  0
   27.5259   11.1623   -0.0189 O   0  0  0  0  0  0  0  0  0  0  0  0
   25.1508   11.4437    0.4196 C   0  0  2  0  0  0  0  0  0  0  0  0
   25.2519   10.5469    1.6435 N   0  0  0  0  0  0  0  0  0  0  0  0
   33.1359   12.2466   -0.4522 O   0  0  0  0  0  0  0  0  0  0  0  0
   24.7156   10.6446   -0.8310 C   0  0  2  0  0  0  0  0  0  0  0  0
   35.5119    8.4535    1.0197 N   0  0  0  0  0  0  0  0  0  0  0  0
   24.6398   11.5673   -2.0576 C   0  0  2  0  0  0  0  0  0  0  0  0
   26.0267   12.2861   -2.3393 C   0  0  2  0  0  0  0  0  0  0  0  0
   26.4420   13.0172   -1.0612 O   0  0  0  0  0  0  0  0  0  0  0  0
   25.9273   13.2607   -3.5485 C   0  0  0  0  0  0  0  0  0  0  0  0
   25.1884   14.4409   -3.2746 N   0  0  0  0  0  0  0  0  0  0  0  0
   31.6511    9.9186    0.4699 C   0  0  2  0  0  0  0  0  0  0  0  0
   33.1419    9.9807    0.4441 N   0  0  0  0  0  0  0  0  0  0  0  0
   31.1331   10.4869   -0.9391 C   0  0  0  0  0  0  0  0  0  0  0  0
   29.5613   10.4343   -1.0076 C   0  0  2  0  0  0  0  0  0  0  0  0
   29.0733   10.9714   -2.2864 N   0  0  0  0  0  0  0  0  0  0  0  0
   28.9488   11.2717    0.1329 C   0  0  2  0  0  0  0  0  0  0  0  0
   29.4435   10.7394    1.5382 C   0  0  2  0  0  0  0  0  0  0  0  0
   28.8004   11.5952    2.5548 O   0  0  0  0  0  0  0  0  0  0  0  0
   31.0500   10.8650    1.6072 C   0  0  1  0  0  0  0  0  0  0  0  0
   31.4644   10.3996    2.8527 O   0  0  0  0  0  0  0  0  0  0  0  0
   28.1193   11.2066    3.5784 C   0  0  1  0  0  0  0  0  0  0  0  0
   28.9390   10.5363    4.7200 C   0  0  2  0  0  0  0  0  0  0  0  0
   28.9687    9.1641    4.4835 O   0  0  0  0  0  0  0  0  0  0  0  0
   28.0576   10.8740    5.8501 C   0  0  1  0  0  0  0  0  0  0  0  0
   27.5179   12.3210    5.6301 C   0  0  2  0  0  0  0  0  0  0  0  0
   27.3410   12.2590    4.2360 O   0  0  0  0  0  0  0  0  0  0  0  0
   28.3298   13.4887    6.1924 C   0  0  0  0  0  0  0  0  0  0  0  0
   29.6150   13.3959    5.6071 O   0  0  0  0  0  0  0  0  0  0  0  0
   26.4061    9.5223    7.0620 C   0  0  2  0  0  0  0  0  0  0  0  0
   26.9687    9.8442    5.8607 O   0  0  0  0  0  0  0  0  0  0  0  0
   25.3104   10.4731    7.4449 C   0  0  1  0  0  0  0  0  0  0  0  0
   27.6137    8.3675   11.9991 N   0  0  0  0  0  0  0  0  0  0  0  0
   35.9350   12.3783   -0.5192 O   0  0  0  0  0  0  0  0  0  0  0  0
   24.7421   10.0733    8.8617 C   0  0  2  0  0  0  0  0  0  0  0  0
   25.8314   10.0352    9.9889 C   0  0  1  0  0  0  0  0  0  0  0  0
   26.8686    9.1075    9.6027 C   0  0  1  0  0  0  0  0  0  0  0  0
   27.4321    9.4701    8.2418 O   0  0  0  0  0  0  0  0  0  0  0  0
   28.0205    9.0693   10.7003 C   0  0  0  0  0  0  0  0  0  0  0  0
   25.8181   11.7849    7.5319 N   0  0  0  0  0  0  0  0  0  0  0  0
   23.6861   10.1860   -0.6408 O   0  0  0  0  0  0  0  0  0  0  0  0
   35.7042   10.9860    1.2607 C   0  0  0  0  0  0  0  0  0  0  0  0
   26.2880   11.0839   10.0859 O   0  0  0  0  0  0  0  0  0  0  0  0
   24.3065    9.0114    8.7862 O   0  0  0  0  0  0  0  0  0  0  0  0
   33.7601   11.2494   -0.0628 C   0  0  0  0  0  0  0  0  0  0  0  0
   36.1080    9.6786    1.4152 C   0  0  0  0  0  0  0  0  0  0  0  0
   35.3733   11.1676   -0.0172 C   0  0  1  0  0  0  0  0  0  0  0  0
   23.6659   12.5602   -1.8507 F   0  0  0  0  0  0  0  0  0  0  0  0
  1  2  1  6  0  0  0
  1 10  1  0  0  0  0
  1  3  1  0  0  0  0
  3  4  1  1  0  0  0
  3  6  1  0  0  0  0
  5 46  2  0  0  0  0
  6 42  1  1  0  0  0
  6  8  1  0  0  0  0
  7 47  1  0  0  0  0
  8  9  1  0  0  0  0
  8 49  1  1  0  0  0
  9 10  1  0  0  0  0
  9 11  1  6  0  0  0
 11 12  1  0  0  0  0
 13 14  1  6  0  0  0
 13 15  1  0  0  0  0
 13 21  1  0  0  0  0
 14 46  1  0  0  0  0
 15 16  1  0  0  0  0
 16 17  1  6  0  0  0
 16 18  1  0  0  0  0
 18  2  1  1  0  0  0
 18 19  1  0  0  0  0
 19 20  1  1  0  0  0
 19 21  1  0  0  0  0
 21 22  1  1  0  0  0
 23 20  1  6  0  0  0
 23 24  1  0  0  0  0
 23 28  1  0  0  0  0
 24 25  1  6  0  0  0
 24 26  1  0  0  0  0
 26 27  1  0  0  0  0
 26 32  1  6  0  0  0
 27 28  1  0  0  0  0
 27 29  1  6  0  0  0
 29 30  1  0  0  0  0
 31 32  1  6  0  0  0
 31 33  1  0  0  0  0
 31 39  1  0  0  0  0
 33 36  1  0  0  0  0
 33 41  1  1  0  0  0
 34 40  1  0  0  0  0
 35 48  1  0  0  0  0
 36 37  1  0  0  0  0
 36 45  1  6  0  0  0
 37 38  1  0  0  0  0
 37 44  1  6  0  0  0
 38 39  1  0  0  0  0
 38 40  1  1  0  0  0
 43 47  1  0  0  0  0
 46 48  1  0  0  0  0
 48 43  1  1  0  0  0
M  END
>  <CHROM.1>
-158.67524186,-141.71447122,72.19498756,45.68136664,128.07082556,70.92469302
150.21442746,57.94337533,84.47178072,71.99462219,-49.58196641,-134.23814778
-1.62752135,28.48015451,10.98183647,2.87696235,1.18198902,0.10427129,-1.38365494

>  <Name>
ligand

>  <RI>
0

>  <Rbt.Current_Directory>
/home/itssahil/PROJECTS/Mol_Feturizer/New_Systems/rnas/4PDQ

>  <Rbt.Executable>
rbdock ($Id: //depot/dev/client3/rdock/2013.1/src/exe/rbdock.cxx#4 $)

>  <Rbt.Library>
libRbt.so (2013.1, Build901 2013/11/27)

>  <Rbt.Parameter_File>
/export/apps/rDock/src/rDock_2013.1_src/data/scripts/dock_solv.prm

>  <Rbt.Receptor>
prm/pocket_docking_2.prm

>  <SCORE>
2.98478

>  <SCORE.INTER>
-1.23941

>  <SCORE.INTER.CONST>
1

>  <SCORE.INTER.POLAR>
0

>  <SCORE.INTER.ROT>
13

>  <SCORE.INTER.SOLV>
24.9955

>  <SCORE.INTER.VDW>
-21.4248

>  <SCORE.INTER.norm>
-0.0252942

>  <SCORE.INTRA>
2.77929

>  <SCORE.INTRA.DIHEDRAL>
-6.90437

>  <SCORE.INTRA.DIHEDRAL.0>
34.5115

>  <SCORE.INTRA.POLAR>
0

>  <SCORE.INTRA.POLAR.0>
0

>  <SCORE.INTRA.REPUL>
0

>  <SCORE.INTRA.REPUL.0>
0

>  <SCORE.INTRA.SOLV>
6.18371

>  <SCORE.INTRA.SOLV.lig_0>
-122.812

>  <SCORE.INTRA.VDW>
3.13962

>  <SCORE.INTRA.VDW.0>
-7.46208

>  <SCORE.INTRA.norm>
0.0567203

>  <SCORE.RESTR>
1.4449

>  <SCORE.RESTR.CAVITY>
1.4449

>  <SCORE.RESTR.norm>
0.0294877

>  <SCORE.SYSTEM>
0

>  <SCORE.SYSTEM.CONST>
0

>  <SCORE.SYSTEM.DIHEDRAL>
0

>  <SCORE.SYSTEM.SOLV>
0

>  <SCORE.SYSTEM.norm>
0

>  <SCORE.heavy>
49

>  <SCORE.norm>
0.0609138

>  <RMSD>
2.466

$$$$
ligand
 OpenBabel11021811513D
libRbt.so/2013.1/901 2013/11/27
 49 52  0  0  0  0  0  0  0  0999 V2000
   25.9495   11.2771    0.1639 C   0  0  2  0  0  0  0  0  0  0  0  0
   27.2104   10.7898   -0.1893 O   0  0  0  0  0  0  0  0  0  0  0  0
   24.8814   10.1282    0.0361 C   0  0  2  0  0  0  0  0  0  0  0  0
   25.2779    8.9757    0.9455 N   0  0  0  0  0  0  0  0  0  0  0  0
   33.5889    8.8056    1.2804 O   0  0  0  0  0  0  0  0  0  0  0  0
   24.7576    9.6690   -1.4355 C   0  0  2  0  0  0  0  0  0  0  0  0
   35.4055    9.9970   -1.2200 N   0  0  0  0  0  0  0  0  0  0  0  0
   24.3761   10.8538   -2.3369 C   0  0  2  0  0  0  0  0  0  0  0  0
   25.4311   12.0352   -2.2332 C   0  0  2  0  0  0  0  0  0  0  0  0
   25.5595   12.4187   -0.7578 O   0  0  0  0  0  0  0  0  0  0  0  0
   25.0093   13.2530   -3.1055 C   0  0  0  0  0  0  0  0  0  0  0  0
   23.7096   13.7433   -2.8155 N   0  0  0  0  0  0  0  0  0  0  0  0
   31.3449   10.6523    1.1107 C   0  0  2  0  0  0  0  0  0  0  0  0
   32.7510   11.0928    1.3469 N   0  0  0  0  0  0  0  0  0  0  0  0
   30.9796   11.0400   -0.4035 C   0  0  0  0  0  0  0  0  0  0  0  0
   29.5120   10.5860   -0.7473 C   0  0  2  0  0  0  0  0  0  0  0  0
   29.1581   10.9539   -2.1262 N   0  0  0  0  0  0  0  0  0  0  0  0
   28.5066   11.2624    0.2059 C   0  0  2  0  0  0  0  0  0  0  0  0
   28.8416   10.9034    1.7099 C   0  0  2  0  0  0  0  0  0  0  0  0
   27.8260   11.5873    2.5348 O   0  0  0  0  0  0  0  0  0  0  0  0
   30.3239   11.4369    2.0554 C   0  0  1  0  0  0  0  0  0  0  0  0
   30.5965   11.1188    3.3837 O   0  0  0  0  0  0  0  0  0  0  0  0
   27.3373   11.1831    3.6575 C   0  0  1  0  0  0  0  0  0  0  0  0
   28.2975   10.3400    4.5475 C   0  0  2  0  0  0  0  0  0  0  0  0
   28.1173    8.9967    4.2268 O   0  0  0  0  0  0  0  0  0  0  0  0
   27.7209   10.6668    5.8623 C   0  0  1  0  0  0  0  0  0  0  0  0
   27.3179   12.1738    5.8554 C   0  0  2  0  0  0  0  0  0  0  0  0
   26.8433   12.2482    4.5334 O   0  0  0  0  0  0  0  0  0  0  0  0
   28.3601   13.2029    6.2955 C   0  0  0  0  0  0  0  0  0  0  0  0
   28.8280   12.7767    7.5612 O   0  0  0  0  0  0  0  0  0  0  0  0
   26.3466    9.2177    7.2887 C   0  0  2  0  0  0  0  0  0  0  0  0
   26.5474    9.7535    6.0494 O   0  0  0  0  0  0  0  0  0  0  0  0
   25.1351    8.3336    7.3317 C   0  0  1  0  0  0  0  0  0  0  0  0
   26.6132   10.6800   12.1884 N   0  0  0  0  0  0  0  0  0  0  0  0
   35.4569   10.9006    3.0506 O   0  0  0  0  0  0  0  0  0  0  0  0
   24.9347    7.7916    8.8001 C   0  0  2  0  0  0  0  0  0  0  0  0
   24.8054    8.9241    9.8769 C   0  0  1  0  0  0  0  0  0  0  0  0
   25.9856    9.7546    9.8230 C   0  0  1  0  0  0  0  0  0  0  0  0
   26.2012   10.2887    8.4197 O   0  0  0  0  0  0  0  0  0  0  0  0
   25.8779   10.9467   10.8719 C   0  0  0  0  0  0  0  0  0  0  0  0
   23.9871    9.0704    6.9773 N   0  0  0  0  0  0  0  0  0  0  0  0
   23.9487    8.8648   -1.5084 O   0  0  0  0  0  0  0  0  0  0  0  0
   36.1399    9.7558    1.2113 C   0  0  0  0  0  0  0  0  0  0  0  0
   23.8882    9.5645    9.6195 O   0  0  0  0  0  0  0  0  0  0  0  0
   25.8611    7.1708    9.0822 O   0  0  0  0  0  0  0  0  0  0  0  0
   33.7968   10.0201    1.4130 C   0  0  0  0  0  0  0  0  0  0  0  0
   36.3210    9.9726   -0.1364 C   0  0  0  0  0  0  0  0  0  0  0  0
   35.2629   10.6532    1.6597 C   0  0  1  0  0  0  0  0  0  0  0  0
   23.1177   11.3560   -1.9608 F   0  0  0  0  0  0  0  0  0  0  0  0
  1  2  1  6  0  0  0
  1 10  1  0  0  0  0
  1  3  1  0  0  0  0
  3  4  1  1  0  0  0
  3  6  1  0  0  0  0
  5 46  2  0  0  0  0
  6 42  1  1  0  0  0
  6  8  1  0  0  0  0
  7 47  1  0  0  0  0
  8  9  1  0  0  0  0
  8 49  1  1  0  0  0
  9 10  1  0  0  0  0
  9 11  1  6  0  0  0
 11 12  1  0  0  0  0
 13 14  1  1  0  0  0
 13 15  1  0  0  0  0
 13 21  1  0  0  0  0
 14 46  1  0  0  0  0
 15 16  1  0  0  0  0
 16 17  1  6  0  0  0
 16 18  1  0  0  0  0
 18  2  1  6  0  0  0
 18 19  1  0  0  0  0
 19 20  1  1  0  0  0
 19 21  1  0  0  0  0
 21 22  1  1  0  0  0
 23 20  1  6  0  0  0
 23 24  1  0  0  0  0
 23 28  1  0  0  0  0
 24 25  1  6  0  0  0
 24 26  1  0  0  0  0
 26 27  1  0  0  0  0
 26 32  1  6  0  0  0
 27 28  1  0  0  0  0
 27 29  1  6  0  0  0
 29 30  1  0  0  0  0
 31 32  1  6  0  0  0
 31 33  1  0  0  0  0
 31 39  1  0  0  0  0
 33 36  1  0  0  0  0
 33 41  1  1  0  0  0
 34 40  1  0  0  0  0
 35 48  1  0  0  0  0
 36 37  1  0  0  0  0
 36 45  1  1  0  0  0
 37 38  1  0  0  0  0
 37 44  1  6  0  0  0
 38 39  1  0  0  0  0
 38 40  1  1  0  0  0
 43 47  1  0  0  0  0
 46 48  1  0  0  0  0
 48 43  1  1  0  0  0
M  END
>  <CHROM.1>
-155.14860823,-166.22461992,55.19417067,-106.39738368,147.97041323,31.00864736
139.94670911,-52.69478646,179.62521161,97.95724186,-57.11114915,-154.08238502
-98.00930263,28.00394653,10.55976794,3.06827625,1.12426468,0.02860639,-1.44058643

>  <Name>
ligand

>  <RI>
0

>  <Rbt.Current_Directory>
/home/itssahil/PROJECTS/Mol_Feturizer/New_Systems/rnas/4PDQ

>  <Rbt.Executable>
rbdock ($Id: //depot/dev/client3/rdock/2013.1/src/exe/rbdock.cxx#4 $)

>  <Rbt.Library>
libRbt.so (2013.1, Build901 2013/11/27)

>  <Rbt.Parameter_File>
/export/apps/rDock/src/rDock_2013.1_src/data/scripts/dock_solv.prm

>  <Rbt.Receptor>
prm/pocket_docking_2.prm

>  <SCORE>
-2.2009

>  <SCORE.INTER>
-2.08438

>  <SCORE.INTER.CONST>
1

>  <SCORE.INTER.POLAR>
0

>  <SCORE.INTER.ROT>
13

>  <SCORE.INTER.SOLV>
22.7717

>  <SCORE.INTER.VDW>
-21.2468

>  <SCORE.INTER.norm>
-0.0425384

>  <SCORE.INTRA>
-1.76904

>  <SCORE.INTRA.DIHEDRAL>
-9.80101

>  <SCORE.INTRA.DIHEDRAL.0>
34.5115

>  <SCORE.INTRA.POLAR>
0

>  <SCORE.INTRA.POLAR.0>
0

>  <SCORE.INTRA.REPUL>
0

>  <SCORE.INTRA.REPUL.0>
0

>  <SCORE.INTRA.SOLV>
0.37193

>  <SCORE.INTRA.SOLV.lig_0>
-122.812

>  <SCORE.INTRA.VDW>
2.9455

>  <SCORE.INTRA.VDW.0>
-7.46208

>  <SCORE.INTRA.norm>
-0.0361029

>  <SCORE.RESTR>
1.65252

>  <SCORE.RESTR.CAVITY>
1.65252

>  <SCORE.RESTR.norm>
0.0337249

>  <SCORE.SYSTEM>
0

>  <SCORE.SYSTEM.CONST>
0

>  <SCORE.SYSTEM.DIHEDRAL>
0

>  <SCORE.SYSTEM.SOLV>
0

>  <SCORE.SYSTEM.norm>
0

>  <SCORE.heavy>
49

>  <SCORE.norm>
-0.0449164

>  <RMSD>
2.481

$$$$
ligand
 OpenBabel11021811513D
libRbt.so/2013.1/901 2013/11/27
 49 52  0  0  0  0  0  0  0  0999 V2000
   26.5625   11.6038    0.3425 C   0  0  2  0  0  0  0  0  0  0  0  0
   27.7572   11.0106   -0.0732 O   0  0  0  0  0  0  0  0  0  0  0  0
   25.3818   10.5720    0.2058 C   0  0  2  0  0  0  0  0  0  0  0  0
   25.6889    9.3479    1.0541 N   0  0  0  0  0  0  0  0  0  0  0  0
   34.2096    9.0509    0.0555 O   0  0  0  0  0  0  0  0  0  0  0  0
   25.1682   10.1913   -1.2778 C   0  0  2  0  0  0  0  0  0  0  0  0
   36.9487   13.9448   -1.1275 N   0  0  0  0  0  0  0  0  0  0  0  0
   24.8794   11.4457   -2.1174 C   0  0  2  0  0  0  0  0  0  0  0  0
   26.0495   12.5122   -2.0030 C   0  0  2  0  0  0  0  0  0  0  0  0
   26.2603   12.8169   -0.5187 O   0  0  0  0  0  0  0  0  0  0  0  0
   25.7249   13.8020   -2.8107 C   0  0  0  0  0  0  0  0  0  0  0  0
   25.6828   13.6036   -4.2153 N   0  0  0  0  0  0  0  0  0  0  0  0
   32.0254   10.8716    0.6791 C   0  0  2  0  0  0  0  0  0  0  0  0
   33.4594   11.2849    0.6753 N   0  0  0  0  0  0  0  0  0  0  0  0
   31.4675   11.0987   -0.8087 C   0  0  0  0  0  0  0  0  0  0  0  0
   29.9579   10.6620   -0.9013 C   0  0  2  0  0  0  0  0  0  0  0  0
   29.4291   10.8843   -2.2551 N   0  0  0  0  0  0  0  0  0  0  0  0
   29.1044   11.4777    0.0903 C   0  0  2  0  0  0  0  0  0  0  0  0
   29.6314   11.2791    1.5687 C   0  0  2  0  0  0  0  0  0  0  0  0
   28.7507   12.0881    2.4343 O   0  0  0  0  0  0  0  0  0  0  0  0
   31.1575   11.7943    1.6517 C   0  0  1  0  0  0  0  0  0  0  0  0
   31.5999   11.6187    2.9605 O   0  0  0  0  0  0  0  0  0  0  0  0
   28.1283   11.6945    3.4929 C   0  0  1  0  0  0  0  0  0  0  0  0
   26.6543   11.2399    3.2799 C   0  0  2  0  0  0  0  0  0  0  0  0
   25.8293   12.3471    3.4625 O   0  0  0  0  0  0  0  0  0  0  0  0
   26.5520   10.2947    4.4042 C   0  0  1  0  0  0  0  0  0  0  0  0
   27.9028    9.5223    4.5144 C   0  0  2  0  0  0  0  0  0  0  0  0
   28.7684   10.5879    4.2080 O   0  0  0  0  0  0  0  0  0  0  0  0
   28.0615    8.2261    3.7184 C   0  0  0  0  0  0  0  0  0  0  0  0
   26.9335    7.4299    4.0288 O   0  0  0  0  0  0  0  0  0  0  0  0
   26.5526   10.5811    6.8417 C   0  0  2  0  0  0  0  0  0  0  0  0
   26.2521   11.1153    5.6219 O   0  0  0  0  0  0  0  0  0  0  0  0
   25.7849   11.2390    7.9503 C   0  0  1  0  0  0  0  0  0  0  0  0
   30.5956   11.5945    8.5377 N   0  0  0  0  0  0  0  0  0  0  0  0
   36.9188    9.7682    0.3682 O   0  0  0  0  0  0  0  0  0  0  0  0
   26.2177   10.6099    9.3313 C   0  0  2  0  0  0  0  0  0  0  0  0
   27.7563   10.7131    9.6154 C   0  0  1  0  0  0  0  0  0  0  0  0
   28.4724   10.0655    8.5415 C   0  0  1  0  0  0  0  0  0  0  0  0
   28.0734   10.6527    7.2009 O   0  0  0  0  0  0  0  0  0  0  0  0
   30.0435   10.1846    8.7665 C   0  0  0  0  0  0  0  0  0  0  0  0
   26.0763   12.6174    7.9875 N   0  0  0  0  0  0  0  0  0  0  0  0
   24.2814    9.4744   -1.3548 O   0  0  0  0  0  0  0  0  0  0  0  0
   36.0942   11.5728   -0.7378 C   0  0  0  0  0  0  0  0  0  0  0  0
   28.0458   11.8236    9.6386 O   0  0  0  0  0  0  0  0  0  0  0  0
   25.9593    9.4892    9.3110 O   0  0  0  0  0  0  0  0  0  0  0  0
   34.4695   10.2293    0.3374 C   0  0  0  0  0  0  0  0  0  0  0  0
   36.6798   12.7674   -0.3829 C   0  0  0  0  0  0  0  0  0  0  0  0
   35.9688   10.8316    0.3624 C   0  0  1  0  0  0  0  0  0  0  0  0
   23.6893   12.0524   -1.6782 F   0  0  0  0  0  0  0  0  0  0  0  0
  1  2  1  6  0  0  0
  1 10  1  0  0  0  0
  1  3  1  0  0  0  0
  3  4  1  1  0  0  0
  3  6  1  0  0  0  0
  5 46  2  0  0  0  0
  6 42  1  1  0  0  0
  6  8  1  0  0  0  0
  7 47  1  0  0  0  0
  8  9  1  0  0  0  0
  8 49  1  1  0  0  0
  9 10  1  0  0  0  0
  9 11  1  6  0  0  0
 11 12  1  0  0  0  0
 13 14  1  6  0  0  0
 13 15  1  0  0  0  0
 13 21  1  0  0  0  0
 14 46  1  0  0  0  0
 15 16  1  0  0  0  0
 16 17  1  6  0  0  0
 16 18  1  0  0  0  0
 18  2  1  1  0  0  0
 18 19  1  0  0  0  0
 19 20  1  1  0  0  0
 19 21  1  0  0  0  0
 21 22  1  1  0  0  0
 23 20  1  6  0  0  0
 23 24  1  0  0  0  0
 23 28  1  0  0  0  0
 24 25  1  1  0  0  0
 24 26  1  0  0  0  0
 26 27  1  0  0  0  0
 26 32  1  1  0  0  0
 27 28  1  0  0  0  0
 27 29  1  6  0  0  0
 29 30  1  0  0  0  0
 31 32  1  6  0  0  0
 31 33  1  0  0  0  0
 31 39  1  0  0  0  0
 33 36  1  0  0  0  0
 33 41  1  1  0  0  0
 34 40  1  0  0  0  0
 35 48  1  0  0  0  0
 36 37  1  0  0  0  0
 36 45  1  6  0  0  0
 37 38  1  0  0  0  0
 37 44  1  6  0  0  0
 38 39  1  0  0  0  0
 38 40  1  1  0  0  0
 43 47  1  0  0  0  0
 46 48  1  0  0  0  0
 48 43  1  6  0  0  0
M  END
>  <CHROM.1>
-168.00952444,-163.72634659,-66.83639561,-89.49043509,128.38058005,-95.06489159
-157.97457091,-51.33709111,-159.45563879,-72.00679980,-174.56485299,-106.50255724
-15.16499334,28.80963243,11.05133491,2.47145994,1.01251243,0.00748872,-1.46389277

>  <Name>
ligand

>  <RI>
0

>  <Rbt.Current_Directory>
/home/itssahil/PROJECTS/Mol_Feturizer/New_Systems/rnas/4PDQ

>  <Rbt.Executable>
rbdock ($Id: //depot/dev/client3/rdock/2013.1/src/exe/rbdock.cxx#4 $)

>  <Rbt.Library>
libRbt.so (2013.1, Build901 2013/11/27)

>  <Rbt.Parameter_File>
/export/apps/rDock/src/rDock_2013.1_src/data/scripts/dock_solv.prm

>  <Rbt.Receptor>
prm/pocket_docking_3.prm

>  <SCORE>
-4.91102

>  <SCORE.INTER>
-0.888886

>  <SCORE.INTER.CONST>
1

>  <SCORE.INTER.POLAR>
0

>  <SCORE.INTER.ROT>
13

>  <SCORE.INTER.SOLV>
25.7742

>  <SCORE.INTER.VDW>
-21.4507

>  <SCORE.INTER.norm>
-0.0181405

>  <SCORE.INTRA>
-4.02392

>  <SCORE.INTRA.DIHEDRAL>
-9.94766

>  <SCORE.INTRA.DIHEDRAL.0>
34.5115

>  <SCORE.INTRA.POLAR>
0

>  <SCORE.INTRA.POLAR.0>
0

>  <SCORE.INTRA.REPUL>
0

>  <SCORE.INTRA.REPUL.0>
0

>  <SCORE.INTRA.SOLV>
0.646923

>  <SCORE.INTRA.SOLV.lig_0>
-122.812

>  <SCORE.INTRA.VDW>
0.626446

>  <SCORE.INTRA.VDW.0>
-7.46208

>  <SCORE.INTRA.norm>
-0.0821209

>  <SCORE.RESTR>
0.00178756

>  <SCORE.RESTR.CAVITY>
0.00178756

>  <SCORE.RESTR.norm>
3.64809e-05

>  <SCORE.SYSTEM>
0

>  <SCORE.SYSTEM.CONST>
0

>  <SCORE.SYSTEM.DIHEDRAL>
0

>  <SCORE.SYSTEM.SOLV>
0

>  <SCORE.SYSTEM.norm>
0

>  <SCORE.heavy>
49

>  <SCORE.norm>
-0.100225

>  <RMSD>
2.529

$$$$
ligand
 OpenBabel11021811513D
libRbt.so/2013.1/901 2013/11/27
 49 52  0  0  0  0  0  0  0  0999 V2000
   27.1596   10.5114   -0.6007 C   0  0  2  0  0  0  0  0  0  0  0  0
   27.6076   11.2152    0.5200 O   0  0  0  0  0  0  0  0  0  0  0  0
   26.1693   11.4099   -1.4309 C   0  0  2  0  0  0  0  0  0  0  0  0
   26.8870   12.6815   -1.8557 N   0  0  0  0  0  0  0  0  0  0  0  0
   33.7928    9.1850    0.0620 O   0  0  0  0  0  0  0  0  0  0  0  0
   24.9040   11.7268   -0.6000 C   0  0  2  0  0  0  0  0  0  0  0  0
   38.5697   10.8951    1.1975 N   0  0  0  0  0  0  0  0  0  0  0  0
   24.2079   10.4273   -0.1660 C   0  0  2  0  0  0  0  0  0  0  0  0
   25.1778    9.4926    0.6737 C   0  0  2  0  0  0  0  0  0  0  0  0
   26.4348    9.2509   -0.1642 O   0  0  0  0  0  0  0  0  0  0  0  0
   24.4840    8.1549    1.0619 C   0  0  0  0  0  0  0  0  0  0  0  0
   25.3679    7.1874    1.6065 N   0  0  0  0  0  0  0  0  0  0  0  0
   31.6660   10.2757    1.7239 C   0  0  2  0  0  0  0  0  0  0  0  0
   33.1160   10.4681    2.0200 N   0  0  0  0  0  0  0  0  0  0  0  0
   31.3780   10.9797    0.3105 C   0  0  0  0  0  0  0  0  0  0  0  0
   29.8668   10.8022   -0.0931 C   0  0  2  0  0  0  0  0  0  0  0  0
   29.5855   11.4606   -1.3773 N   0  0  0  0  0  0  0  0  0  0  0  0
   28.9510   11.4250    0.9795 C   0  0  2  0  0  0  0  0  0  0  0  0
   29.2130   10.7550    2.3885 C   0  0  2  0  0  0  0  0  0  0  0  0
   28.2899   11.4099    3.3364 O   0  0  0  0  0  0  0  0  0  0  0  0
   30.7498   11.0075    2.8081 C   0  0  1  0  0  0  0  0  0  0  0  0
   30.9580   10.4180    4.0526 O   0  0  0  0  0  0  0  0  0  0  0  0
   27.8702   10.9399    4.4614 C   0  0  1  0  0  0  0  0  0  0  0  0
   26.8473   11.8309    5.2260 C   0  0  2  0  0  0  0  0  0  0  0  0
   27.5581   12.6687    6.0820 O   0  0  0  0  0  0  0  0  0  0  0  0
   26.1425   10.7703    5.9652 C   0  0  1  0  0  0  0  0  0  0  0  0
   25.9896    9.5386    5.0202 C   0  0  2  0  0  0  0  0  0  0  0  0
   27.2398    9.6201    4.3809 O   0  0  0  0  0  0  0  0  0  0  0  0
   24.7437    9.4551    4.1372 C   0  0  0  0  0  0  0  0  0  0  0  0
   24.7492   10.6196    3.3331 O   0  0  0  0  0  0  0  0  0  0  0  0
   26.3986    9.7579    8.1862 C   0  0  2  0  0  0  0  0  0  0  0  0
   26.9744   10.4727    7.1758 O   0  0  0  0  0  0  0  0  0  0  0  0
   25.3228   10.5356    8.8855 C   0  0  1  0  0  0  0  0  0  0  0  0
   27.4786    7.1494   12.5862 N   0  0  0  0  0  0  0  0  0  0  0  0
   36.3883    8.9506    1.4565 O   0  0  0  0  0  0  0  0  0  0  0  0
   24.7383    9.6718   10.0697 C   0  0  2  0  0  0  0  0  0  0  0  0
   25.8207    9.2105   11.1062 C   0  0  1  0  0  0  0  0  0  0  0  0
   26.8386    8.4570   10.4122 C   0  0  1  0  0  0  0  0  0  0  0  0
   27.4171    9.2664    9.2670 O   0  0  0  0  0  0  0  0  0  0  0  0
   27.9837    8.0047   11.4207 C   0  0  0  0  0  0  0  0  0  0  0  0
   25.8597   11.7189    9.4313 N   0  0  0  0  0  0  0  0  0  0  0  0
   24.1843   12.3446   -1.2376 O   0  0  0  0  0  0  0  0  0  0  0  0
   36.0809   11.0558    0.6605 C   0  0  0  0  0  0  0  0  0  0  0  0
   26.3004   10.1455   11.5680 O   0  0  0  0  0  0  0  0  0  0  0  0
   24.2792    8.7162    9.6232 O   0  0  0  0  0  0  0  0  0  0  0  0
   34.0921    9.8402    1.0704 C   0  0  0  0  0  0  0  0  0  0  0  0
   37.2916   11.5079    1.1357 C   0  0  0  0  0  0  0  0  0  0  0  0
   35.6148   10.1470    1.5163 C   0  0  1  0  0  0  0  0  0  0  0  0
   23.7814    9.7111   -1.2985 F   0  0  0  0  0  0  0  0  0  0  0  0
  1  2  1  1  0  0  0
  1 10  1  0  0  0  0
  1  3  1  0  0  0  0
  3  4  1  1  0  0  0
  3  6  1  0  0  0  0
  5 46  2  0  0  0  0
  6 42  1  6  0  0  0
  6  8  1  0  0  0  0
  7 47  1  0  0  0  0
  8  9  1  0  0  0  0
  8 49  1  6  0  0  0
  9 10  1  0  0  0  0
  9 11  1  6  0  0  0
 11 12  1  0  0  0  0
 13 14  1  1  0  0  0
 13 15  1  0  0  0  0
 13 21  1  0  0  0  0
 14 46  1  0  0  0  0
 15 16  1  0  0  0  0
 16 17  1  6  0  0  0
 16 18  1  0  0  0  0
 18  2  1  6  0  0  0
 18 19  1  0  0  0  0
 19 20  1  1  0  0  0
 19 21  1  0  0  0  0
 21 22  1  1  0  0  0
 23 20  1  6  0  0  0
 23 24  1  0  0  0  0
 23 28  1  0  0  0  0
 24 25  1  1  0  0  0
 24 26  1  0  0  0  0
 26 27  1  0  0  0  0
 26 32  1  1  0  0  0
 27 28  1  0  0  0  0
 27 29  1  6  0  0  0
 29 30  1  0  0  0  0
 31 32  1  6  0  0  0
 31 33  1  0  0  0  0
 31 39  1  0  0  0  0
 33 36  1  0  0  0  0
 33 41  1  1  0  0  0
 34 40  1  0  0  0  0
 35 48  1  0  0  0  0
 36 37  1  0  0  0  0
 36 45  1  6  0  0  0
 37 38  1  0  0  0  0
 37 44  1  6  0  0  0
 38 39  1  0  0  0  0
 38 40  1  1  0  0  0
 43 47  1  0  0  0  0
 46 48  1  0  0  0  0
 48 43  1  6  0  0  0
M  END
>  <CHROM.1>
-129.18775006,4.58977756,169.56965716,-62.81220750,157.61085592,-177.40671626
164.86755948,58.79860107,-68.49051903,58.44189132,72.48884331,-70.46289910
-46.98678472,28.29968711,10.26427259,3.62558676,0.95885721,-0.00130629,-1.44395698

>  <Name>
ligand

>  <RI>
0

>  <Rbt.Current_Directory>
/home/itssahil/PROJECTS/Mol_Feturizer/New_Systems/rnas/4PDQ

>  <Rbt.Executable>
rbdock ($Id: //depot/dev/client3/rdock/2013.1/src/exe/rbdock.cxx#4 $)

>  <Rbt.Library>
libRbt.so (2013.1, Build901 2013/11/27)

>  <Rbt.Parameter_File>
/export/apps/rDock/src/rDock_2013.1_src/data/scripts/dock_solv.prm

>  <Rbt.Receptor>
prm/pocket_docking_2.prm

>  <SCORE>
-1.62063

>  <SCORE.INTER>
-1.91771

>  <SCORE.INTER.CONST>
1

>  <SCORE.INTER.POLAR>
0

>  <SCORE.INTER.ROT>
13

>  <SCORE.INTER.SOLV>
20.6919

>  <SCORE.INTER.VDW>
-20.4424

>  <SCORE.INTER.norm>
-0.0391369

>  <SCORE.INTRA>
-0.952781

>  <SCORE.INTRA.DIHEDRAL>
-13.2673

>  <SCORE.INTRA.DIHEDRAL.0>
34.5115

>  <SCORE.INTRA.POLAR>
0

>  <SCORE.INTRA.POLAR.0>
0

>  <SCORE.INTRA.REPUL>
0.0143212

>  <SCORE.INTRA.REPUL.0>
0

>  <SCORE.INTRA.SOLV>
3.20454

>  <SCORE.INTRA.SOLV.lig_0>
-122.812

>  <SCORE.INTRA.VDW>
4.00698

>  <SCORE.INTRA.VDW.0>
-7.46208

>  <SCORE.INTRA.norm>
-0.0194445

>  <SCORE.RESTR>
1.24986

>  <SCORE.RESTR.CAVITY>
1.24986

>  <SCORE.RESTR.norm>
0.0255073

>  <SCORE.SYSTEM>
0

>  <SCORE.SYSTEM.CONST>
0

>  <SCORE.SYSTEM.DIHEDRAL>
0

>  <SCORE.SYSTEM.SOLV>
0

>  <SCORE.SYSTEM.norm>
0

>  <SCORE.heavy>
49

>  <SCORE.norm>
-0.033074

>  <RMSD>
2.636

$$$$
ligand
 OpenBabel11021811513D
libRbt.so/2013.1/901 2013/11/27
 49 52  0  0  0  0  0  0  0  0999 V2000
   26.8697    9.7064   -0.2941 C   0  0  2  0  0  0  0  0  0  0  0  0
   27.3969   10.7211    0.5087 O   0  0  0  0  0  0  0  0  0  0  0  0
   25.6176   10.2472   -1.0795 C   0  0  2  0  0  0  0  0  0  0  0  0
   26.0387   11.4332   -1.9329 N   0  0  0  0  0  0  0  0  0  0  0  0
   34.0802    9.2422    1.3117 O   0  0  0  0  0  0  0  0  0  0  0  0
   24.4893   10.6330   -0.0946 C   0  0  2  0  0  0  0  0  0  0  0  0
   38.9551   10.4408    1.8842 N   0  0  0  0  0  0  0  0  0  0  0  0
   24.0951    9.4249    0.7695 C   0  0  2  0  0  0  0  0  0  0  0  0
   25.3349    8.8496    1.5768 C   0  0  2  0  0  0  0  0  0  0  0  0
   26.4419    8.5333    0.5694 O   0  0  0  0  0  0  0  0  0  0  0  0
   24.9406    7.5932    2.4060 C   0  0  0  0  0  0  0  0  0  0  0  0
   25.5255    6.3889    1.9353 N   0  0  0  0  0  0  0  0  0  0  0  0
   31.7328   10.7377    0.4587 C   0  0  2  0  0  0  0  0  0  0  0  0
   33.1268   11.2503    0.3134 N   0  0  0  0  0  0  0  0  0  0  0  0
   30.9015   11.2735   -0.8056 C   0  0  0  0  0  0  0  0  0  0  0  0
   29.4161   10.7557   -0.7450 C   0  0  2  0  0  0  0  0  0  0  0  0
   28.6385   11.2567   -1.8879 N   0  0  0  0  0  0  0  0  0  0  0  0
   28.7349   11.2385    0.5511 C   0  0  2  0  0  0  0  0  0  0  0  0
   29.5331   10.7302    1.8189 C   0  0  2  0  0  0  0  0  0  0  0  0
   28.8020   11.2347    2.9981 O   0  0  0  0  0  0  0  0  0  0  0  0
   31.0304   11.3275    1.7662 C   0  0  1  0  0  0  0  0  0  0  0  0
   31.7133   10.8758    2.8928 O   0  0  0  0  0  0  0  0  0  0  0  0
   28.3876   10.5472    4.0072 C   0  0  1  0  0  0  0  0  0  0  0  0
   28.0123   11.3686    5.2756 C   0  0  2  0  0  0  0  0  0  0  0  0
   29.1465   11.4686    6.0779 O   0  0  0  0  0  0  0  0  0  0  0  0
   27.0204   10.4443    5.8497 C   0  0  1  0  0  0  0  0  0  0  0  0
   26.1820    9.8430    4.6796 C   0  0  2  0  0  0  0  0  0  0  0  0
   27.2198    9.7041    3.7404 O   0  0  0  0  0  0  0  0  0  0  0  0
   24.9193   10.5849    4.2392 C   0  0  0  0  0  0  0  0  0  0  0  0
   24.1017   10.6928    5.3893 O   0  0  0  0  0  0  0  0  0  0  0  0
   27.4306    9.1462    7.8918 C   0  0  2  0  0  0  0  0  0  0  0  0
   27.7951    9.4050    6.6020 O   0  0  0  0  0  0  0  0  0  0  0  0
   26.1400    8.3851    7.9715 C   0  0  1  0  0  0  0  0  0  0  0  0
   27.2389   11.4998   12.4697 N   0  0  0  0  0  0  0  0  0  0  0  0
   35.5342   12.4654    0.4969 O   0  0  0  0  0  0  0  0  0  0  0  0
   25.7544    8.1663    9.4860 C   0  0  2  0  0  0  0  0  0  0  0  0
   25.6379    9.4985   10.3047 C   0  0  1  0  0  0  0  0  0  0  0  0
   26.8932   10.2075   10.2211 C   0  0  1  0  0  0  0  0  0  0  0  0
   27.2872   10.4306    8.7733 O   0  0  0  0  0  0  0  0  0  0  0  0
   26.8064   11.5908   11.0035 C   0  0  0  0  0  0  0  0  0  0  0  0
   25.1064    9.1221    7.3594 N   0  0  0  0  0  0  0  0  0  0  0  0
   23.5786   10.9834   -0.6896 O   0  0  0  0  0  0  0  0  0  0  0  0
   36.4322   10.6988    1.6071 C   0  0  0  0  0  0  0  0  0  0  0  0
   24.8147   10.1431    9.8308 O   0  0  0  0  0  0  0  0  0  0  0  0
   26.5863    7.5451    9.9812 O   0  0  0  0  0  0  0  0  0  0  0  0
   34.2312   10.3629    0.8049 C   0  0  0  0  0  0  0  0  0  0  0  0
   37.7520   10.8159    1.2325 C   0  0  0  0  0  0  0  0  0  0  0  0
   35.6754   11.0482    0.5677 C   0  0  1  0  0  0  0  0  0  0  0  0
   23.5886    8.3975   -0.0461 F   0  0  0  0  0  0  0  0  0  0  0  0
  1  2  1  1  0  0  0
  1 10  1  0  0  0  0
  1  3  1  0  0  0  0
  3  4  1  1  0  0  0
  3  6  1  0  0  0  0
  5 46  2  0  0  0  0
  6 42  1  6  0  0  0
  6  8  1  0  0  0  0
  7 47  1  0  0  0  0
  8  9  1  0  0  0  0
  8 49  1  6  0  0  0
  9 10  1  0  0  0  0
  9 11  1  6  0  0  0
 11 12  1  0  0  0  0
 13 14  1  6  0  0  0
 13 15  1  0  0  0  0
 13 21  1  0  0  0  0
 14 46  1  0  0  0  0
 15 16  1  0  0  0  0
 16 17  1  6  0  0  0
 16 18  1  0  0  0  0
 18  2  1  1  0  0  0
 18 19  1  0  0  0  0
 19 20  1  1  0  0  0
 19 21  1  0  0  0  0
 21 22  1  1  0  0  0
 23 20  1  6  0  0  0
 23 24  1  0  0  0  0
 23 28  1  0  0  0  0
 24 25  1  1  0  0  0
 24 26  1  0  0  0  0
 26 27  1  0  0  0  0
 26 32  1  6  0  0  0
 27 28  1  0  0  0  0
 27 29  1  6  0  0  0
 29 30  1  0  0  0  0
 31 32  1  6  0  0  0
 31 33  1  0  0  0  0
 31 39  1  0  0  0  0
 33 36  1  0  0  0  0
 33 41  1  6  0  0  0
 34 40  1  0  0  0  0
 35 48  1  0  0  0  0
 36 37  1  0  0  0  0
 36 45  1  1  0  0  0
 37 38  1  0  0  0  0
 37 44  1  6  0  0  0
 38 39  1  0  0  0  0
 38 40  1  1  0  0  0
 43 47  1  0  0  0  0
 46 48  1  0  0  0  0
 48 43  1  1  0  0  0
M  END
>  <CHROM.1>
-125.07611672,16.23308758,111.57565385,-145.73419384,127.58584853,163.32120600
129.12887821,-56.98797144,72.81051093,91.29507942,-172.17247914,-82.67092388
-156.55133347,28.38204024,10.16401101,3.47886443,0.78967680,-0.13640779,-1.54879682

>  <Name>
ligand

>  <RI>
0

>  <Rbt.Current_Directory>
/home/itssahil/PROJECTS/Mol_Feturizer/New_Systems/rnas/4PDQ

>  <Rbt.Executable>
rbdock ($Id: //depot/dev/client3/rdock/2013.1/src/exe/rbdock.cxx#4 $)

>  <Rbt.Library>
libRbt.so (2013.1, Build901 2013/11/27)

>  <Rbt.Parameter_File>
/export/apps/rDock/src/rDock_2013.1_src/data/scripts/dock_solv.prm

>  <Rbt.Receptor>
prm/pocket_docking_2.prm

>  <SCORE>
8.16761

>  <SCORE.INTER>
-1.37532

>  <SCORE.INTER.CONST>
1

>  <SCORE.INTER.POLAR>
0

>  <SCORE.INTER.ROT>
13

>  <SCORE.INTER.SOLV>
23.7952

>  <SCORE.INTER.VDW>
-21.1153

>  <SCORE.INTER.norm>
-0.0280677

>  <SCORE.INTRA>
8.01328

>  <SCORE.INTRA.DIHEDRAL>
6.6583

>  <SCORE.INTRA.DIHEDRAL.0>
34.5115

>  <SCORE.INTRA.POLAR>
0

>  <SCORE.INTRA.POLAR.0>
0

>  <SCORE.INTRA.REPUL>
0.00150826

>  <SCORE.INTRA.REPUL.0>
0

>  <SCORE.INTRA.SOLV>
3.77728

>  <SCORE.INTRA.SOLV.lig_0>
-122.812

>  <SCORE.INTRA.VDW>
2.78794

>  <SCORE.INTRA.VDW.0>
-7.46208

>  <SCORE.INTRA.norm>
0.163536

>  <SCORE.RESTR>
1.52965

>  <SCORE.RESTR.CAVITY>
1.52965

>  <SCORE.RESTR.norm>
0.0312173

>  <SCORE.SYSTEM>
0

>  <SCORE.SYSTEM.CONST>
0

>  <SCORE.SYSTEM.DIHEDRAL>
0

>  <SCORE.SYSTEM.SOLV>
0

>  <SCORE.SYSTEM.norm>
0

>  <SCORE.heavy>
49

>  <SCORE.norm>
0.166686

>  <RMSD>
2.649

$$$$
ligand
 OpenBabel11021811513D
libRbt.so/2013.1/901 2013/11/27
 49 52  0  0  0  0  0  0  0  0999 V2000
   27.6717    9.2930    0.1525 C   0  0  2  0  0  0  0  0  0  0  0  0
   28.6388    9.2640    1.1604 O   0  0  0  0  0  0  0  0  0  0  0  0
   27.0746   10.7442    0.0313 C   0  0  2  0  0  0  0  0  0  0  0  0
   28.1973   11.7205   -0.2833 N   0  0  0  0  0  0  0  0  0  0  0  0
   33.8115   11.6590    0.4011 O   0  0  0  0  0  0  0  0  0  0  0  0
   26.3366   11.1336    1.3335 C   0  0  2  0  0  0  0  0  0  0  0  0
   39.1799   11.5381    1.1488 N   0  0  0  0  0  0  0  0  0  0  0  0
   25.2209   10.1224    1.6407 C   0  0  2  0  0  0  0  0  0  0  0  0
   25.7856    8.6444    1.7685 C   0  0  2  0  0  0  0  0  0  0  0  0
   26.5508    8.3240    0.4832 O   0  0  0  0  0  0  0  0  0  0  0  0
   24.6433    7.6190    2.0243 C   0  0  0  0  0  0  0  0  0  0  0  0
   23.9620    7.8144    3.2538 N   0  0  0  0  0  0  0  0  0  0  0  0
   32.9641    9.0531    1.3840 C   0  0  2  0  0  0  0  0  0  0  0  0
   34.3943    9.4207    1.1682 N   0  0  0  0  0  0  0  0  0  0  0  0
   32.2272    9.1806   -0.0362 C   0  0  0  0  0  0  0  0  0  0  0  0
   30.7093    8.7846    0.0957 C   0  0  2  0  0  0  0  0  0  0  0  0
   30.0181    8.9168   -1.1953 N   0  0  0  0  0  0  0  0  0  0  0  0
   30.0052    9.7009    1.1163 C   0  0  2  0  0  0  0  0  0  0  0  0
   30.7110    9.6020    2.5288 C   0  0  2  0  0  0  0  0  0  0  0  0
   29.9638   10.5026    3.4288 O   0  0  0  0  0  0  0  0  0  0  0  0
   32.2456   10.0751    2.3790 C   0  0  1  0  0  0  0  0  0  0  0  0
   32.8464    9.9885    3.6325 O   0  0  0  0  0  0  0  0  0  0  0  0
   29.5461   10.2383    4.6199 C   0  0  1  0  0  0  0  0  0  0  0  0
   29.0311   11.4571    5.4408 C   0  0  2  0  0  0  0  0  0  0  0  0
   30.1036   11.9789    6.1601 O   0  0  0  0  0  0  0  0  0  0  0  0
   28.0838   10.7470    6.3162 C   0  0  1  0  0  0  0  0  0  0  0  0
   27.3678    9.6500    5.4691 C   0  0  2  0  0  0  0  0  0  0  0  0
   28.4677    9.2495    4.6892 O   0  0  0  0  0  0  0  0  0  0  0  0
   26.0783   10.0276    4.7387 C   0  0  0  0  0  0  0  0  0  0  0  0
   25.2029   10.5460    5.7225 O   0  0  0  0  0  0  0  0  0  0  0  0
   28.2230    9.5847    8.4733 C   0  0  2  0  0  0  0  0  0  0  0  0
   28.8929   10.1752    7.4408 O   0  0  0  0  0  0  0  0  0  0  0  0
   28.4720    8.1065    8.5354 C   0  0  1  0  0  0  0  0  0  0  0  0
   24.0177   11.0090    9.2886 N   0  0  0  0  0  0  0  0  0  0  0  0
   36.5032   12.4231    0.1796 O   0  0  0  0  0  0  0  0  0  0  0  0
   27.6300    7.4832    9.7155 C   0  0  2  0  0  0  0  0  0  0  0  0
   26.0904    7.7593    9.6046 C   0  0  1  0  0  0  0  0  0  0  0  0
   25.8758    9.1865    9.5564 C   0  0  1  0  0  0  0  0  0  0  0  0
   26.6757    9.8108    8.4288 O   0  0  0  0  0  0  0  0  0  0  0  0
   24.3260    9.5131    9.3991 C   0  0  0  0  0  0  0  0  0  0  0  0
   28.0587    7.4965    7.3340 N   0  0  0  0  0  0  0  0  0  0  0  0
   25.8782   12.1727    1.2058 O   0  0  0  0  0  0  0  0  0  0  0  0
   36.8162   10.7176    1.6469 C   0  0  0  0  0  0  0  0  0  0  0  0
   25.7091    7.2928    8.6276 O   0  0  0  0  0  0  0  0  0  0  0  0
   27.9824    7.9636   10.6995 O   0  0  0  0  0  0  0  0  0  0  0  0
   34.6702   10.8017    0.6529 C   0  0  0  0  0  0  0  0  0  0  0  0
   38.1721   10.5850    1.4466 C   0  0  0  0  0  0  0  0  0  0  0  0
   36.2578   11.0519    0.4843 C   0  0  1  0  0  0  0  0  0  0  0  0
   24.2635   10.1380    0.6110 F   0  0  0  0  0  0  0  0  0  0  0  0
  1  2  1  1  0  0  0
  1 10  1  0  0  0  0
  1  3  1  0  0  0  0
  3  4  1  1  0  0  0
  3  6  1  0  0  0  0
  5 46  2  0  0  0  0
  6 42  1  6  0  0  0
  6  8  1  0  0  0  0
  7 47  1  0  0  0  0
  8  9  1  0  0  0  0
  8 49  1  6  0  0  0
  9 10  1  0  0  0  0
  9 11  1  6  0  0  0
 11 12  1  0  0  0  0
 13 14  1  6  0  0  0
 13 15  1  0  0  0  0
 13 21  1  0  0  0  0
 14 46  1  0  0  0  0
 15 16  1  0  0  0  0
 16 17  1  6  0  0  0
 16 18  1  0  0  0  0
 18  2  1  1  0  0  0
 18 19  1  0  0  0  0
 19 20  1  1  0  0  0
 19 21  1  0  0  0  0
 21 22  1  1  0  0  0
 23 20  1  6  0  0  0
 23 24  1  0  0  0  0
 23 28  1  0  0  0  0
 24 25  1  1  0  0  0
 24 26  1  0  0  0  0
 26 27  1  0  0  0  0
 26 32  1  1  0  0  0
 27 28  1  0  0  0  0
 27 29  1  6  0  0  0
 29 30  1  0  0  0  0
 31 32  1  6  0  0  0
 31 33  1  0  0  0  0
 31 39  1  0  0  0  0
 33 36  1  0  0  0  0
 33 41  1  6  0  0  0
 34 40  1  0  0  0  0
 35 48  1  0  0  0  0
 36 37  1  0  0  0  0
 36 45  1  1  0  0  0
 37 38  1  0  0  0  0
 37 44  1  6  0  0  0
 38 39  1  0  0  0  0
 38 40  1  6  0  0  0
 43 47  1  0  0  0  0
 46 48  1  0  0  0  0
 48 43  1  1  0  0  0
M  END
>  <CHROM.1>
-79.38728046,-64.44429763,-63.71708902,60.09273334,133.14786691,168.57744605
173.14573696,-55.14053308,113.04440387,-177.89073846,68.50276778,-75.78591741
7.36068897,29.17219966,9.81780223,3.76329776,0.65714810,-0.10542677,-1.47372204

>  <Name>
ligand

>  <RI>
0

>  <Rbt.Current_Directory>
/home/itssahil/PROJECTS/Mol_Feturizer/New_Systems/rnas/4PDQ

>  <Rbt.Executable>
rbdock ($Id: //depot/dev/client3/rdock/2013.1/src/exe/rbdock.cxx#4 $)

>  <Rbt.Library>
libRbt.so (2013.1, Build901 2013/11/27)

>  <Rbt.Parameter_File>
/export/apps/rDock/src/rDock_2013.1_src/data/scripts/dock_solv.prm

>  <Rbt.Receptor>
prm/pocket_docking_3.prm

>  <SCORE>
0.506539

>  <SCORE.INTER>
4.20846

>  <SCORE.INTER.CONST>
1

>  <SCORE.INTER.POLAR>
0

>  <SCORE.INTER.ROT>
13

>  <SCORE.INTER.SOLV>
18.3632

>  <SCORE.INTER.VDW>
-15.5821

>  <SCORE.INTER.norm>
0.0858869

>  <SCORE.INTRA>
-3.70192

>  <SCORE.INTRA.DIHEDRAL>
-16.3724

>  <SCORE.INTRA.DIHEDRAL.0>
34.5115

>  <SCORE.INTRA.POLAR>
0

>  <SCORE.INTRA.POLAR.0>
0

>  <SCORE.INTRA.REPUL>
0

>  <SCORE.INTRA.REPUL.0>
0

>  <SCORE.INTRA.SOLV>
4.97973

>  <SCORE.INTRA.SOLV.lig_0>
-122.812

>  <SCORE.INTRA.VDW>
1.99443

>  <SCORE.INTRA.VDW.0>
-7.46208

>  <SCORE.INTRA.norm>
-0.0755493

>  <SCORE.RESTR>
0

>  <SCORE.RESTR.CAVITY>
0

>  <SCORE.RESTR.norm>
0

>  <SCORE.SYSTEM>
0

>  <SCORE.SYSTEM.CONST>
0

>  <SCORE.SYSTEM.DIHEDRAL>
0

>  <SCORE.SYSTEM.SOLV>
0

>  <SCORE.SYSTEM.norm>
0

>  <SCORE.heavy>
49

>  <SCORE.norm>
0.0103375

>  <RMSD>
2.668

$$$$
ligand
 OpenBabel11021811513D
libRbt.so/2013.1/901 2013/11/27
 49 52  0  0  0  0  0  0  0  0999 V2000
   25.4884   11.2387    0.3147 C   0  0  2  0  0  0  0  0  0  0  0  0
   26.7565   10.6916    0.1039 O   0  0  0  0  0  0  0  0  0  0  0  0
   24.3991   10.1066    0.2194 C   0  0  2  0  0  0  0  0  0  0  0  0
   24.6962    9.0401    1.2619 N   0  0  0  0  0  0  0  0  0  0  0  0
   33.1719    8.9073    0.9581 O   0  0  0  0  0  0  0  0  0  0  0  0
   24.3672    9.5085   -1.2064 C   0  0  2  0  0  0  0  0  0  0  0  0
   35.1083   11.9862   -1.3369 N   0  0  0  0  0  0  0  0  0  0  0  0
   24.0854   10.6074   -2.2431 C   0  0  2  0  0  0  0  0  0  0  0  0
   25.1642   11.7699   -2.1758 C   0  0  2  0  0  0  0  0  0  0  0  0
   25.1982   12.2929   -0.7385 O   0  0  0  0  0  0  0  0  0  0  0  0
   24.8412   12.9054   -3.1896 C   0  0  0  0  0  0  0  0  0  0  0  0
   23.6114   13.5671   -2.9369 N   0  0  0  0  0  0  0  0  0  0  0  0
   30.8177   10.4907    1.6103 C   0  0  2  0  0  0  0  0  0  0  0  0
   32.2087   10.9188    1.9401 N   0  0  0  0  0  0  0  0  0  0  0  0
   30.5312   10.9493    0.0990 C   0  0  0  0  0  0  0  0  0  0  0  0
   29.0844   10.5128   -0.3421 C   0  0  2  0  0  0  0  0  0  0  0  0
   28.8024   10.9453   -1.7188 N   0  0  0  0  0  0  0  0  0  0  0  0
   28.0294   11.1443    0.5881 C   0  0  2  0  0  0  0  0  0  0  0  0
   28.2860   10.7149    2.0889 C   0  0  2  0  0  0  0  0  0  0  0  0
   27.2275   11.3599    2.8908 O   0  0  0  0  0  0  0  0  0  0  0  0
   29.7473   11.2307    2.5361 C   0  0  1  0  0  0  0  0  0  0  0  0
   29.9507   10.8504    3.8604 O   0  0  0  0  0  0  0  0  0  0  0  0
   26.9151   11.1020    4.1150 C   0  0  1  0  0  0  0  0  0  0  0  0
   27.6409    9.8819    4.7545 C   0  0  2  0  0  0  0  0  0  0  0  0
   26.8583    8.7503    4.5377 O   0  0  0  0  0  0  0  0  0  0  0  0
   27.5952   10.3127    6.1618 C   0  0  1  0  0  0  0  0  0  0  0  0
   27.8492   11.8512    6.2076 C   0  0  2  0  0  0  0  0  0  0  0  0
   27.1311   12.2073    5.0518 O   0  0  0  0  0  0  0  0  0  0  0  0
   29.2926   12.3424    6.3272 C   0  0  0  0  0  0  0  0  0  0  0  0
   29.2388   13.7541    6.2447 O   0  0  0  0  0  0  0  0  0  0  0  0
   26.1775    9.1909    7.8216 C   0  0  2  0  0  0  0  0  0  0  0  0
   26.2402    9.9330    6.6775 O   0  0  0  0  0  0  0  0  0  0  0  0
   24.9406    8.3435    7.8773 C   0  0  1  0  0  0  0  0  0  0  0  0
   27.5644   11.0780   11.7335 N   0  0  0  0  0  0  0  0  0  0  0  0
   35.7766    9.6266    1.7215 O   0  0  0  0  0  0  0  0  0  0  0  0
   24.9079    7.5548    9.2437 C   0  0  2  0  0  0  0  0  0  0  0  0
   24.9757    8.4811   10.5070 C   0  0  1  0  0  0  0  0  0  0  0  0
   26.1776    9.2785   10.4356 C   0  0  1  0  0  0  0  0  0  0  0  0
   26.2335   10.0476    9.1293 O   0  0  0  0  0  0  0  0  0  0  0  0
   26.2660   10.2679   11.6791 C   0  0  0  0  0  0  0  0  0  0  0  0
   23.7932    9.1597    7.8163 N   0  0  0  0  0  0  0  0  0  0  0  0
   23.5425    8.7190   -1.2612 O   0  0  0  0  0  0  0  0  0  0  0  0
   34.9447   11.6723    1.1896 C   0  0  0  0  0  0  0  0  0  0  0  0
   24.0649    9.1795   10.4924 O   0  0  0  0  0  0  0  0  0  0  0  0
   25.8321    6.8710    9.2846 O   0  0  0  0  0  0  0  0  0  0  0  0
   33.3173    9.9907    1.5420 C   0  0  0  0  0  0  0  0  0  0  0  0
   34.9127   11.2711   -0.1273 C   0  0  0  0  0  0  0  0  0  0  0  0
   34.7577   10.5968    1.9535 C   0  0  1  0  0  0  0  0  0  0  0  0
   22.8185   11.1716   -2.0107 F   0  0  0  0  0  0  0  0  0  0  0  0
  1  2  1  6  0  0  0
  1 10  1  0  0  0  0
  1  3  1  0  0  0  0
  3  4  1  1  0  0  0
  3  6  1  0  0  0  0
  5 46  2  0  0  0  0
  6 42  1  1  0  0  0
  6  8  1  0  0  0  0
  7 47  1  0  0  0  0
  8  9  1  0  0  0  0
  8 49  1  1  0  0  0
  9 10  1  0  0  0  0
  9 11  1  6  0  0  0
 11 12  1  0  0  0  0
 13 14  1  1  0  0  0
 13 15  1  0  0  0  0
 13 21  1  0  0  0  0
 14 46  1  0  0  0  0
 15 16  1  0  0  0  0
 16 17  1  6  0  0  0
 16 18  1  0  0  0  0
 18  2  1  6  0  0  0
 18 19  1  0  0  0  0
 19 20  1  1  0  0  0
 19 21  1  0  0  0  0
 21 22  1  1  0  0  0
 23 20  1  6  0  0  0
 23 24  1  0  0  0  0
 23 28  1  0  0  0  0
 24 25  1  1  0  0  0
 24 26  1  0  0  0  0
 26 27  1  0  0  0  0
 26 32  1  6  0  0  0
 27 28  1  0  0  0  0
 27 29  1  6  0  0  0
 29 30  1  0  0  0  0
 31 32  1  6  0  0  0
 31 33  1  0  0  0  0
 31 39  1  0  0  0  0
 33 36  1  0  0  0  0
 33 41  1  1  0  0  0
 34 40  1  0  0  0  0
 35 48  1  0  0  0  0
 36 37  1  0  0  0  0
 36 45  1  6  0  0  0
 37 38  1  0  0  0  0
 37 44  1  6  0  0  0
 38 39  1  0  0  0  0
 38 40  1  1  0  0  0
 43 47  1  0  0  0  0
 46 48  1  0  0  0  0
 48 43  1  6  0  0  0
M  END
>  <CHROM.1>
-152.56252701,-159.62273045,62.91315165,-85.04815267,167.00847423,-6.69884882
127.07255005,175.69233258,-152.33109446,175.73809541,-177.07532867,59.76808984
-8.28751304,27.74669380,10.50164482,3.29681092,1.25232489,-0.05409443,-1.42320711

>  <Name>
ligand

>  <RI>
0

>  <Rbt.Current_Directory>
/home/itssahil/PROJECTS/Mol_Feturizer/New_Systems/rnas/4PDQ

>  <Rbt.Executable>
rbdock ($Id: //depot/dev/client3/rdock/2013.1/src/exe/rbdock.cxx#4 $)

>  <Rbt.Library>
libRbt.so (2013.1, Build901 2013/11/27)

>  <Rbt.Parameter_File>
/export/apps/rDock/src/rDock_2013.1_src/data/scripts/dock_solv.prm

>  <Rbt.Receptor>
prm/pocket_docking_2.prm

>  <SCORE>
0.608038

>  <SCORE.INTER>
-1.78034

>  <SCORE.INTER.CONST>
1

>  <SCORE.INTER.POLAR>
0

>  <SCORE.INTER.ROT>
13

>  <SCORE.INTER.SOLV>
26.3308

>  <SCORE.INTER.VDW>
-22.2305

>  <SCORE.INTER.norm>
-0.0363334

>  <SCORE.INTRA>
1.60443

>  <SCORE.INTRA.DIHEDRAL>
-10.1031

>  <SCORE.INTRA.DIHEDRAL.0>
34.5115

>  <SCORE.INTRA.POLAR>
0

>  <SCORE.INTRA.POLAR.0>
0

>  <SCORE.INTRA.REPUL>
0

>  <SCORE.INTRA.REPUL.0>
0

>  <SCORE.INTRA.SOLV>
-0.570719

>  <SCORE.INTRA.SOLV.lig_0>
-122.812

>  <SCORE.INTRA.VDW>
6.94135

>  <SCORE.INTRA.VDW.0>
-7.46208

>  <SCORE.INTRA.norm>
0.0327434

>  <SCORE.RESTR>
0.783947

>  <SCORE.RESTR.CAVITY>
0.783947

>  <SCORE.RESTR.norm>
0.0159989

>  <SCORE.SYSTEM>
0

>  <SCORE.SYSTEM.CONST>
0

>  <SCORE.SYSTEM.DIHEDRAL>
0

>  <SCORE.SYSTEM.SOLV>
0

>  <SCORE.SYSTEM.norm>
0

>  <SCORE.heavy>
49

>  <SCORE.norm>
0.0124089

>  <RMSD>
2.670

$$$$
ligand
 OpenBabel11021811513D
libRbt.so/2013.1/901 2013/11/27
 49 52  0  0  0  0  0  0  0  0999 V2000
   27.3673    9.6249   -0.0205 C   0  0  2  0  0  0  0  0  0  0  0  0
   28.2277    9.8807    1.0501 O   0  0  0  0  0  0  0  0  0  0  0  0
   26.6255   10.9501   -0.4338 C   0  0  2  0  0  0  0  0  0  0  0  0
   27.6567   11.9984   -0.8214 N   0  0  0  0  0  0  0  0  0  0  0  0
   34.6413    9.2378    0.0282 O   0  0  0  0  0  0  0  0  0  0  0  0
   25.7239   11.4454    0.7210 C   0  0  2  0  0  0  0  0  0  0  0  0
   39.0939   10.2837    0.7148 N   0  0  0  0  0  0  0  0  0  0  0  0
   24.7043   10.3626    1.1079 C   0  0  2  0  0  0  0  0  0  0  0  0
   25.4163    9.0081    1.5297 C   0  0  2  0  0  0  0  0  0  0  0  0
   26.3355    8.5864    0.3818 O   0  0  0  0  0  0  0  0  0  0  0  0
   24.3772    7.8998    1.8664 C   0  0  0  0  0  0  0  0  0  0  0  0
   24.9570    6.6975    2.3485 N   0  0  0  0  0  0  0  0  0  0  0  0
   32.4927   10.4890    1.5424 C   0  0  2  0  0  0  0  0  0  0  0  0
   33.8448   11.1001    1.3830 N   0  0  0  0  0  0  0  0  0  0  0  0
   31.8486   10.3852    0.0758 C   0  0  0  0  0  0  0  0  0  0  0  0
   30.4216    9.7246    0.1487 C   0  0  2  0  0  0  0  0  0  0  0  0
   29.8123    9.6423   -1.1869 N   0  0  0  0  0  0  0  0  0  0  0  0
   29.4924   10.5591    1.0527 C   0  0  2  0  0  0  0  0  0  0  0  0
   30.1012   10.6846    2.5075 C   0  0  2  0  0  0  0  0  0  0  0  0
   29.1412   11.4880    3.2901 O   0  0  0  0  0  0  0  0  0  0  0  0
   31.5321   11.4228    2.4118 C   0  0  1  0  0  0  0  0  0  0  0  0
   32.0472   11.5306    3.7013 O   0  0  0  0  0  0  0  0  0  0  0  0
   28.5988   11.1696    4.4158 C   0  0  1  0  0  0  0  0  0  0  0  0
   29.4503   11.4696    5.6845 C   0  0  2  0  0  0  0  0  0  0  0  0
   30.2114   10.3392    5.9722 O   0  0  0  0  0  0  0  0  0  0  0  0
   28.3519   11.6451    6.6491 C   0  0  1  0  0  0  0  0  0  0  0  0
   27.1945   12.4085    5.9343 C   0  0  2  0  0  0  0  0  0  0  0  0
   27.2997   11.7959    4.6725 O   0  0  0  0  0  0  0  0  0  0  0  0
   27.1972   13.9371    5.9847 C   0  0  0  0  0  0  0  0  0  0  0  0
   27.4888   14.2888    7.3241 O   0  0  0  0  0  0  0  0  0  0  0  0
   26.9461   10.1610    8.0074 C   0  0  2  0  0  0  0  0  0  0  0  0
   27.9530   10.2700    7.0920 O   0  0  0  0  0  0  0  0  0  0  0  0
   27.0102   11.2402    9.0477 C   0  0  1  0  0  0  0  0  0  0  0  0
   25.9560    6.0097    9.4006 N   0  0  0  0  0  0  0  0  0  0  0  0
   36.0135   12.4989    0.1894 O   0  0  0  0  0  0  0  0  0  0  0  0
   25.8526   11.0238   10.0980 C   0  0  2  0  0  0  0  0  0  0  0  0
   25.8842    9.6164   10.7887 C   0  0  1  0  0  0  0  0  0  0  0  0
   25.8116    8.5960    9.7694 C   0  0  1  0  0  0  0  0  0  0  0  0
   26.9153    8.7821    8.7455 O   0  0  0  0  0  0  0  0  0  0  0  0
   25.8851    7.1470   10.4237 C   0  0  0  0  0  0  0  0  0  0  0  0
   28.2399   11.1772    9.7335 N   0  0  0  0  0  0  0  0  0  0  0  0
   25.1662   12.3838    0.3825 O   0  0  0  0  0  0  0  0  0  0  0  0
   36.8375   10.9895    1.6735 C   0  0  0  0  0  0  0  0  0  0  0  0
   26.8802    9.5114   11.3495 O   0  0  0  0  0  0  0  0  0  0  0  0
   24.8475   11.0979    9.5435 O   0  0  0  0  0  0  0  0  0  0  0  0
   34.8472   10.3302    0.5760 C   0  0  0  0  0  0  0  0  0  0  0  0
   38.1999   11.0672    1.4892 C   0  0  0  0  0  0  0  0  0  0  0  0
   36.2517   11.1242    0.4845 C   0  0  1  0  0  0  0  0  0  0  0  0
   23.8572   10.0914    0.0188 F   0  0  0  0  0  0  0  0  0  0  0  0
  1  2  1  1  0  0  0
  1 10  1  0  0  0  0
  1  3  1  0  0  0  0
  3  4  1  1  0  0  0
  3  6  1  0  0  0  0
  5 46  2  0  0  0  0
  6 42  1  6  0  0  0
  6  8  1  0  0  0  0
  7 47  1  0  0  0  0
  8  9  1  0  0  0  0
  8 49  1  6  0  0  0
  9 10  1  0  0  0  0
  9 11  1  6  0  0  0
 11 12  1  0  0  0  0
 13 14  1  6  0  0  0
 13 15  1  0  0  0  0
 13 21  1  0  0  0  0
 14 46  1  0  0  0  0
 15 16  1  0  0  0  0
 16 17  1  6  0  0  0
 16 18  1  0  0  0  0
 18  2  1  1  0  0  0
 18 19  1  0  0  0  0
 19 20  1  1  0  0  0
 19 21  1  0  0  0  0
 21 22  1  1  0  0  0
 23 20  1  6  0  0  0
 23 24  1  0  0  0  0
 23 28  1  0  0  0  0
 24 25  1  1  0  0  0
 24 26  1  0  0  0  0
 26 27  1  0  0  0  0
 26 32  1  6  0  0  0
 27 28  1  0  0  0  0
 27 29  1  6  0  0  0
 29 30  1  0  0  0  0
 31 32  1  6  0  0  0
 31 33  1  0  0  0  0
 31 39  1  0  0  0  0
 33 36  1  0  0  0  0
 33 41  1  1  0  0  0
 34 40  1  0  0  0  0
 35 48  1  0  0  0  0
 36 37  1  0  0  0  0
 36 45  1  6  0  0  0
 37 38  1  0  0  0  0
 37 44  1  6  0  0  0
 38 39  1  0  0  0  0
 38 40  1  1  0  0  0
 43 47  1  0  0  0  0
 46 48  1  0  0  0  0
 48 43  1  1  0  0  0
M  END
>  <CHROM.1>
-74.52492450,-62.02260561,-175.43924973,-62.84900158,126.18283933,83.61994728
179.51068139,-45.08003465,-38.34926144,-174.19094398,-59.48695048,-88.25558697
133.80588266,28.95976211,10.48042227,3.85768424,0.77412902,-0.11355857,-1.57492511

>  <Name>
ligand

>  <RI>
0

>  <Rbt.Current_Directory>
/home/itssahil/PROJECTS/Mol_Feturizer/New_Systems/rnas/4PDQ

>  <Rbt.Executable>
rbdock ($Id: //depot/dev/client3/rdock/2013.1/src/exe/rbdock.cxx#4 $)

>  <Rbt.Library>
libRbt.so (2013.1, Build901 2013/11/27)

>  <Rbt.Parameter_File>
/export/apps/rDock/src/rDock_2013.1_src/data/scripts/dock_solv.prm

>  <Rbt.Receptor>
prm/pocket_docking_2.prm

>  <SCORE>
1.69641

>  <SCORE.INTER>
1.92093

>  <SCORE.INTER.CONST>
1

>  <SCORE.INTER.POLAR>
0

>  <SCORE.INTER.ROT>
13

>  <SCORE.INTER.SOLV>
17.1241

>  <SCORE.INTER.VDW>
-16.6941

>  <SCORE.INTER.norm>
0.0392026

>  <SCORE.INTRA>
-4.30694

>  <SCORE.INTRA.DIHEDRAL>
-17.6366

>  <SCORE.INTRA.DIHEDRAL.0>
34.5115

>  <SCORE.INTRA.POLAR>
0

>  <SCORE.INTRA.POLAR.0>
0

>  <SCORE.INTRA.REPUL>
0

>  <SCORE.INTRA.REPUL.0>
0

>  <SCORE.INTRA.SOLV>
0.951609

>  <SCORE.INTRA.SOLV.lig_0>
-122.812

>  <SCORE.INTRA.VDW>
4.03557

>  <SCORE.INTRA.VDW.0>
-7.46208

>  <SCORE.INTRA.norm>
-0.0878968

>  <SCORE.RESTR>
4.08242

>  <SCORE.RESTR.CAVITY>
4.08242

>  <SCORE.RESTR.norm>
0.0833147

>  <SCORE.SYSTEM>
0

>  <SCORE.SYSTEM.CONST>
0

>  <SCORE.SYSTEM.DIHEDRAL>
0

>  <SCORE.SYSTEM.SOLV>
0

>  <SCORE.SYSTEM.norm>
0

>  <SCORE.heavy>
49

>  <SCORE.norm>
0.0346206

>  <RMSD>
2.702

$$$$
ligand
 OpenBabel11021811513D
libRbt.so/2013.1/901 2013/11/27
 49 52  0  0  0  0  0  0  0  0999 V2000
   27.4135   10.0053   -0.1367 C   0  0  2  0  0  0  0  0  0  0  0  0
   28.0346   11.2328    0.1073 O   0  0  0  0  0  0  0  0  0  0  0  0
   25.9701   10.2466   -0.7161 C   0  0  2  0  0  0  0  0  0  0  0  0
   26.0774   11.0511   -2.0021 N   0  0  0  0  0  0  0  0  0  0  0  0
   34.0962    8.5971    2.0927 O   0  0  0  0  0  0  0  0  0  0  0  0
   25.0840   10.9660    0.3274 C   0  0  2  0  0  0  0  0  0  0  0  0
   37.7228    8.8999   -0.6664 N   0  0  0  0  0  0  0  0  0  0  0  0
   25.0071   10.1443    1.6237 C   0  0  2  0  0  0  0  0  0  0  0  0
   26.4465    9.8787    2.2379 C   0  0  2  0  0  0  0  0  0  0  0  0
   27.3012    9.2165    1.1556 O   0  0  0  0  0  0  0  0  0  0  0  0
   26.3651    8.9995    3.5193 C   0  0  0  0  0  0  0  0  0  0  0  0
   25.9640    7.6609    3.2717 N   0  0  0  0  0  0  0  0  0  0  0  0
   32.2309   10.4963    0.9144 C   0  0  2  0  0  0  0  0  0  0  0  0
   33.7024   10.7333    0.9883 N   0  0  0  0  0  0  0  0  0  0  0  0
   31.7522   10.9671   -0.5435 C   0  0  0  0  0  0  0  0  0  0  0  0
   30.2060   10.7278   -0.7173 C   0  0  2  0  0  0  0  0  0  0  0  0
   29.7513   11.1741   -2.0424 N   0  0  0  0  0  0  0  0  0  0  0  0
   29.4207   11.5129    0.3523 C   0  0  2  0  0  0  0  0  0  0  0  0
   29.8723   11.0749    1.8039 C   0  0  2  0  0  0  0  0  0  0  0  0
   29.0633   11.8719    2.7471 O   0  0  0  0  0  0  0  0  0  0  0  0
   31.4443   11.3909    1.9782 C   0  0  1  0  0  0  0  0  0  0  0  0
   31.8201   11.0063    3.2629 O   0  0  0  0  0  0  0  0  0  0  0  0
   28.6543   11.5116    3.9158 C   0  0  1  0  0  0  0  0  0  0  0  0
   29.7383   11.4892    5.0334 C   0  0  2  0  0  0  0  0  0  0  0  0
   30.2982   10.2144    5.0680 O   0  0  0  0  0  0  0  0  0  0  0  0
   28.8629   11.7299    6.1925 C   0  0  1  0  0  0  0  0  0  0  0  0
   27.7797   12.7722    5.7755 C   0  0  2  0  0  0  0  0  0  0  0  0
   27.5611   12.3192    4.4619 O   0  0  0  0  0  0  0  0  0  0  0  0
   28.0907   14.2565    5.9730 C   0  0  0  0  0  0  0  0  0  0  0  0
   26.9513   14.9637    5.5210 O   0  0  0  0  0  0  0  0  0  0  0  0
   27.4280   10.3545    7.6322 C   0  0  2  0  0  0  0  0  0  0  0  0
   28.2768   10.4015    6.5641 O   0  0  0  0  0  0  0  0  0  0  0  0
   28.0962   10.7888    8.9035 C   0  0  1  0  0  0  0  0  0  0  0  0
   24.6117    6.8358    7.8747 N   0  0  0  0  0  0  0  0  0  0  0  0
   36.3915   10.8977    2.7357 O   0  0  0  0  0  0  0  0  0  0  0  0
   27.0762   10.6611   10.1007 C   0  0  2  0  0  0  0  0  0  0  0  0
   26.4876    9.2182   10.2750 C   0  0  1  0  0  0  0  0  0  0  0  0
   25.8422    8.8269    9.0439 C   0  0  1  0  0  0  0  0  0  0  0  0
   26.8029    8.9412    7.8755 O   0  0  0  0  0  0  0  0  0  0  0  0
   25.2667    7.3477    9.1607 C   0  0  0  0  0  0  0  0  0  0  0  0
   29.1991    9.9554    9.1782 N   0  0  0  0  0  0  0  0  0  0  0  0
   24.0319   11.0928   -0.1009 O   0  0  0  0  0  0  0  0  0  0  0  0
   36.7753    8.9116    1.7023 C   0  0  0  0  0  0  0  0  0  0  0  0
   27.3553    8.4969   10.4854 O   0  0  0  0  0  0  0  0  0  0  0  0
   26.1862   11.3583    9.8888 O   0  0  0  0  0  0  0  0  0  0  0  0
   34.5316    9.6608    1.6294 C   0  0  0  0  0  0  0  0  0  0  0  0
   36.9484    8.4280    0.4247 C   0  0  0  0  0  0  0  0  0  0  0  0
   36.0984   10.0565    1.6222 C   0  0  1  0  0  0  0  0  0  0  0  0
   24.4040    8.9002    1.3672 F   0  0  0  0  0  0  0  0  0  0  0  0
  1  2  1  1  0  0  0
  1 10  1  0  0  0  0
  1  3  1  0  0  0  0
  3  4  1  6  0  0  0
  3  6  1  0  0  0  0
  5 46  2  0  0  0  0
  6 42  1  6  0  0  0
  6  8  1  0  0  0  0
  7 47  1  0  0  0  0
  8  9  1  0  0  0  0
  8 49  1  6  0  0  0
  9 10  1  0  0  0  0
  9 11  1  1  0  0  0
 11 12  1  0  0  0  0
 13 14  1  6  0  0  0
 13 15  1  0  0  0  0
 13 21  1  0  0  0  0
 14 46  1  0  0  0  0
 15 16  1  0  0  0  0
 16 17  1  6  0  0  0
 16 18  1  0  0  0  0
 18  2  1  1  0  0  0
 18 19  1  0  0  0  0
 19 20  1  1  0  0  0
 19 21  1  0  0  0  0
 21 22  1  1  0  0  0
 23 20  1  6  0  0  0
 23 24  1  0  0  0  0
 23 28  1  0  0  0  0
 24 25  1  1  0  0  0
 24 26  1  0  0  0  0
 26 27  1  0  0  0  0
 26 32  1  6  0  0  0
 27 28  1  0  0  0  0
 27 29  1  6  0  0  0
 29 30  1  0  0  0  0
 31 32  1  6  0  0  0
 31 33  1  0  0  0  0
 31 39  1  0  0  0  0
 33 36  1  0  0  0  0
 33 41  1  1  0  0  0
 34 40  1  0  0  0  0
 35 48  1  0  0  0  0
 36 37  1  0  0  0  0
 36 45  1  6  0  0  0
 37 38  1  0  0  0  0
 37 44  1  6  0  0  0
 38 39  1  0  0  0  0
 38 40  1  1  0  0  0
 43 47  1  0  0  0  0
 46 48  1  0  0  0  0
 48 43  1  1  0  0  0
M  END
>  <CHROM.1>
-165.05193583,46.36977185,68.37865162,-137.69170665,147.93623192,74.54856793
179.40360450,-179.85705614,-61.04620210,-177.78354235,68.42931163,-153.55348904
-97.23351853,29.03186128,10.37009586,3.64585515,0.79272770,0.04128381,-1.50159026

>  <Name>
ligand

>  <RI>
0

>  <Rbt.Current_Directory>
/home/itssahil/PROJECTS/Mol_Feturizer/New_Systems/rnas/4PDQ

>  <Rbt.Executable>
rbdock ($Id: //depot/dev/client3/rdock/2013.1/src/exe/rbdock.cxx#4 $)

>  <Rbt.Library>
libRbt.so (2013.1, Build901 2013/11/27)

>  <Rbt.Parameter_File>
/export/apps/rDock/src/rDock_2013.1_src/data/scripts/dock_solv.prm

>  <Rbt.Receptor>
prm/pocket_docking_3.prm

>  <SCORE>
-6.70581

>  <SCORE.INTER>
1.89396

>  <SCORE.INTER.CONST>
1

>  <SCORE.INTER.POLAR>
0

>  <SCORE.INTER.ROT>
13

>  <SCORE.INTER.SOLV>
22.0984

>  <SCORE.INTER.VDW>
-18.3702

>  <SCORE.INTER.norm>
0.0386522

>  <SCORE.INTRA>
-8.5999

>  <SCORE.INTRA.DIHEDRAL>
-22.6113

>  <SCORE.INTRA.DIHEDRAL.0>
34.5115

>  <SCORE.INTRA.POLAR>
0

>  <SCORE.INTRA.POLAR.0>
0

>  <SCORE.INTRA.REPUL>
0

>  <SCORE.INTRA.REPUL.0>
0

>  <SCORE.INTRA.SOLV>
-0.0237246

>  <SCORE.INTRA.SOLV.lig_0>
-122.812

>  <SCORE.INTRA.VDW>
2.71759

>  <SCORE.INTRA.VDW.0>
-7.46208

>  <SCORE.INTRA.norm>
-0.175508

>  <SCORE.RESTR>
0.000129075

>  <SCORE.RESTR.CAVITY>
0.000129075

>  <SCORE.RESTR.norm>
2.63419e-06

>  <SCORE.SYSTEM>
0

>  <SCORE.SYSTEM.CONST>
0

>  <SCORE.SYSTEM.DIHEDRAL>
0

>  <SCORE.SYSTEM.SOLV>
0

>  <SCORE.SYSTEM.norm>
0

>  <SCORE.heavy>
49

>  <SCORE.norm>
-0.136853

>  <RMSD>
2.716

$$$$
ligand
 OpenBabel11021811513D
libRbt.so/2013.1/901 2013/11/27
 49 52  0  0  0  0  0  0  0  0999 V2000
   27.4202    9.9093   -0.3317 C   0  0  2  0  0  0  0  0  0  0  0  0
   28.2493   10.0478    0.7843 O   0  0  0  0  0  0  0  0  0  0  0  0
   26.6837   11.2705   -0.6180 C   0  0  2  0  0  0  0  0  0  0  0  0
   27.7200   12.3568   -0.8593 N   0  0  0  0  0  0  0  0  0  0  0  0
   34.8624    9.4350    0.5627 O   0  0  0  0  0  0  0  0  0  0  0  0
   25.7479   11.6345    0.5584 C   0  0  2  0  0  0  0  0  0  0  0  0
   34.6876   12.4964   -1.4055 N   0  0  0  0  0  0  0  0  0  0  0  0
   24.7234   10.5139    0.7955 C   0  0  2  0  0  0  0  0  0  0  0  0
   25.4301    9.1227    1.0862 C   0  0  2  0  0  0  0  0  0  0  0  0
   26.3828    8.8311   -0.0747 O   0  0  0  0  0  0  0  0  0  0  0  0
   24.3875    7.9822    1.2701 C   0  0  0  0  0  0  0  0  0  0  0  0
   24.9636    6.7237    1.5838 N   0  0  0  0  0  0  0  0  0  0  0  0
   32.4592   10.7445    1.5550 C   0  0  2  0  0  0  0  0  0  0  0  0
   33.7959   11.4070    1.5175 N   0  0  0  0  0  0  0  0  0  0  0  0
   31.8967   10.7371    0.0517 C   0  0  0  0  0  0  0  0  0  0  0  0
   30.4914   10.0298   -0.0048 C   0  0  2  0  0  0  0  0  0  0  0  0
   29.9560   10.0346   -1.3742 N   0  0  0  0  0  0  0  0  0  0  0  0
   29.4880   10.7619    0.9084 C   0  0  2  0  0  0  0  0  0  0  0  0
   30.0153   10.7909    2.3998 C   0  0  2  0  0  0  0  0  0  0  0  0
   28.9885   11.5006    3.1881 O   0  0  0  0  0  0  0  0  0  0  0  0
   31.4229   11.5774    2.4398 C   0  0  1  0  0  0  0  0  0  0  0  0
   31.8658   11.5988    3.7600 O   0  0  0  0  0  0  0  0  0  0  0  0
   28.5719   11.1990    4.3706 C   0  0  1  0  0  0  0  0  0  0  0  0
   29.6022   11.3988    5.5210 C   0  0  2  0  0  0  0  0  0  0  0  0
   30.2984   10.2045    5.6908 O   0  0  0  0  0  0  0  0  0  0  0  0
   28.6559   11.6377    6.6235 C   0  0  1  0  0  0  0  0  0  0  0  0
   27.4826   12.5084    6.0770 C   0  0  2  0  0  0  0  0  0  0  0  0
   27.3729   11.9204    4.8039 O   0  0  0  0  0  0  0  0  0  0  0  0
   27.6176   14.0301    6.1479 C   0  0  0  0  0  0  0  0  0  0  0  0
   26.4569   14.5599    5.5356 O   0  0  0  0  0  0  0  0  0  0  0  0
   27.3707   10.2351    8.1741 C   0  0  2  0  0  0  0  0  0  0  0  0
   28.2058   10.2883    7.0955 O   0  0  0  0  0  0  0  0  0  0  0  0
   27.9942   10.8338    9.4005 C   0  0  1  0  0  0  0  0  0  0  0  0
   24.9599    6.4641    8.7124 N   0  0  0  0  0  0  0  0  0  0  0  0
   37.2710   10.8199    1.8352 O   0  0  0  0  0  0  0  0  0  0  0  0
   26.9978   10.6927   10.6160 C   0  0  2  0  0  0  0  0  0  0  0  0
   26.5653    9.2139   10.9069 C   0  0  1  0  0  0  0  0  0  0  0  0
   25.9601    8.6632    9.7169 C   0  0  1  0  0  0  0  0  0  0  0  0
   26.8990    8.7871    8.5319 O   0  0  0  0  0  0  0  0  0  0  0  0
   25.5443    7.1452    9.9532 C   0  0  0  0  0  0  0  0  0  0  0  0
   29.1798   10.1444    9.7249 N   0  0  0  0  0  0  0  0  0  0  0  0
   25.1953   12.6034    0.3091 O   0  0  0  0  0  0  0  0  0  0  0  0
   36.7392   11.4942   -0.2677 C   0  0  0  0  0  0  0  0  0  0  0  0
   27.5050    8.6059   11.1614 O   0  0  0  0  0  0  0  0  0  0  0  0
   26.0385   11.2744   10.3620 O   0  0  0  0  0  0  0  0  0  0  0  0
   34.9397   10.5988    0.9814 C   0  0  0  0  0  0  0  0  0  0  0  0
   36.0242   12.4664   -0.9307 C   0  0  0  0  0  0  0  0  0  0  0  0
   36.3107   11.4541    0.9932 C   0  0  1  0  0  0  0  0  0  0  0  0
   23.9081   10.3622   -0.3401 F   0  0  0  0  0  0  0  0  0  0  0  0
  1  2  1  1  0  0  0
  1 10  1  0  0  0  0
  1  3  1  0  0  0  0
  3  4  1  1  0  0  0
  3  6  1  0  0  0  0
  5 46  2  0  0  0  0
  6 42  1  6  0  0  0
  6  8  1  0  0  0  0
  7 47  1  0  0  0  0
  8  9  1  0  0  0  0
  8 49  1  6  0  0  0
  9 10  1  0  0  0  0
  9 11  1  6  0  0  0
 11 12  1  0  0  0  0
 13 14  1  6  0  0  0
 13 15  1  0  0  0  0
 13 21  1  0  0  0  0
 14 46  1  0  0  0  0
 15 16  1  0  0  0  0
 16 17  1  6  0  0  0
 16 18  1  0  0  0  0
 18  2  1  1  0  0  0
 18 19  1  0  0  0  0
 19 20  1  1  0  0  0
 19 21  1  0  0  0  0
 21 22  1  1  0  0  0
 23 20  1  6  0  0  0
 23 24  1  0  0  0  0
 23 28  1  0  0  0  0
 24 25  1  1  0  0  0
 24 26  1  0  0  0  0
 26 27  1  0  0  0  0
 26 32  1  6  0  0  0
 27 28  1  0  0  0  0
 27 29  1  6  0  0  0
 29 30  1  0  0  0  0
 31 32  1  6  0  0  0
 31 33  1  0  0  0  0
 31 39  1  0  0  0  0
 33 36  1  0  0  0  0
 33 41  1  1  0  0  0
 34 40  1  0  0  0  0
 35 48  1  0  0  0  0
 36 37  1  0  0  0  0
 36 45  1  6  0  0  0
 37 38  1  0  0  0  0
 37 44  1  6  0  0  0
 38 39  1  0  0  0  0
 38 40  1  1  0  0  0
 43 47  1  0  0  0  0
 46 48  1  0  0  0  0
 48 43  1  6  0  0  0
M  END
>  <CHROM.1>
-72.19535691,-65.72148105,-177.71463538,-76.26422859,139.59724148,68.38516358
176.42481543,177.32707187,-60.56487248,-176.98370008,-74.31719572,-160.53899996
-62.31507676,28.96679233,10.59536689,3.66592940,0.92227112,-0.14100657,-1.51352276

>  <Name>
ligand

>  <RI>
0

>  <Rbt.Current_Directory>
/home/itssahil/PROJECTS/Mol_Feturizer/New_Systems/rnas/4PDQ

>  <Rbt.Executable>
rbdock ($Id: //depot/dev/client3/rdock/2013.1/src/exe/rbdock.cxx#4 $)

>  <Rbt.Library>
libRbt.so (2013.1, Build901 2013/11/27)

>  <Rbt.Parameter_File>
/export/apps/rDock/src/rDock_2013.1_src/data/scripts/dock_solv.prm

>  <Rbt.Receptor>
prm/pocket_docking_3.prm

>  <SCORE>
-6.5041

>  <SCORE.INTER>
0.449181

>  <SCORE.INTER.CONST>
1

>  <SCORE.INTER.POLAR>
0

>  <SCORE.INTER.ROT>
13

>  <SCORE.INTER.SOLV>
25.3951

>  <SCORE.INTER.VDW>
-20.4322

>  <SCORE.INTER.norm>
0.00916695

>  <SCORE.INTRA>
-6.95328

>  <SCORE.INTRA.DIHEDRAL>
-23.0055

>  <SCORE.INTRA.DIHEDRAL.0>
34.5115

>  <SCORE.INTRA.POLAR>
0

>  <SCORE.INTRA.POLAR.0>
0

>  <SCORE.INTRA.REPUL>
0

>  <SCORE.INTRA.REPUL.0>
0

>  <SCORE.INTRA.SOLV>
2.89955

>  <SCORE.INTRA.SOLV.lig_0>
-122.812

>  <SCORE.INTRA.VDW>
3.0997

>  <SCORE.INTRA.VDW.0>
-7.46208

>  <SCORE.INTRA.norm>
-0.141904

>  <SCORE.RESTR>
0

>  <SCORE.RESTR.CAVITY>
0

>  <SCORE.RESTR.norm>
0

>  <SCORE.SYSTEM>
0

>  <SCORE.SYSTEM.CONST>
0

>  <SCORE.SYSTEM.DIHEDRAL>
0

>  <SCORE.SYSTEM.SOLV>
0

>  <SCORE.SYSTEM.norm>
0

>  <SCORE.heavy>
49

>  <SCORE.norm>
-0.132737

>  <RMSD>
2.729

$$$$
ligand
 OpenBabel11021811513D
libRbt.so/2013.1/901 2013/11/27
 49 52  0  0  0  0  0  0  0  0999 V2000
   24.6614   10.5602    0.2442 C   0  0  2  0  0  0  0  0  0  0  0  0
   25.9661   10.0979    0.0547 O   0  0  0  0  0  0  0  0  0  0  0  0
   23.6455    9.5871   -0.4615 C   0  0  2  0  0  0  0  0  0  0  0  0
   23.8035    8.1921    0.1228 N   0  0  0  0  0  0  0  0  0  0  0  0
   32.1471    8.1376    2.2237 O   0  0  0  0  0  0  0  0  0  0  0  0
   23.8734    9.5873   -1.9912 C   0  0  2  0  0  0  0  0  0  0  0  0
   31.1546   10.5976    4.5827 N   0  0  0  0  0  0  0  0  0  0  0  0
   23.7283   11.0094   -2.5551 C   0  0  2  0  0  0  0  0  0  0  0  0
   24.7374   12.0217   -1.8648 C   0  0  2  0  0  0  0  0  0  0  0  0
   24.5124   11.9478   -0.3534 O   0  0  0  0  0  0  0  0  0  0  0  0
   24.5465   13.4701   -2.4009 C   0  0  0  0  0  0  0  0  0  0  0  0
   24.7719   13.5995   -3.7960 N   0  0  0  0  0  0  0  0  0  0  0  0
   30.1322   10.0014    1.2534 C   0  0  2  0  0  0  0  0  0  0  0  0
   31.4191   10.4363    1.8713 N   0  0  0  0  0  0  0  0  0  0  0  0
   29.5423   11.2651    0.4587 C   0  0  0  0  0  0  0  0  0  0  0  0
   28.1883   10.8852   -0.2488 C   0  0  2  0  0  0  0  0  0  0  0  0
   27.6273   12.0409   -0.9638 N   0  0  0  0  0  0  0  0  0  0  0  0
   27.1548   10.4144    0.7939 C   0  0  2  0  0  0  0  0  0  0  0  0
   27.7078    9.1700    1.5993 C   0  0  2  0  0  0  0  0  0  0  0  0
   26.6502    8.7944    2.5584 O   0  0  0  0  0  0  0  0  0  0  0  0
   29.0584    9.6041    2.3667 C   0  0  1  0  0  0  0  0  0  0  0  0
   29.5244    8.4992    3.0750 O   0  0  0  0  0  0  0  0  0  0  0  0
   26.4441    9.3030    3.7253 C   0  0  1  0  0  0  0  0  0  0  0  0
   25.2747   10.3269    3.8188 C   0  0  2  0  0  0  0  0  0  0  0  0
   25.7935   11.5988    3.5882 O   0  0  0  0  0  0  0  0  0  0  0  0
   24.9250   10.1313    5.2356 C   0  0  1  0  0  0  0  0  0  0  0  0
   25.0412    8.6097    5.5594 C   0  0  2  0  0  0  0  0  0  0  0  0
   26.1808    8.3266    4.7850 O   0  0  0  0  0  0  0  0  0  0  0  0
   23.8065    7.7308    5.3549 C   0  0  0  0  0  0  0  0  0  0  0  0
   22.9019    8.0717    6.3884 O   0  0  0  0  0  0  0  0  0  0  0  0
   25.7927   10.9258    7.3895 C   0  0  2  0  0  0  0  0  0  0  0  0
   25.8835   10.9677    6.0281 O   0  0  0  0  0  0  0  0  0  0  0  0
   26.6472   11.9708    8.0444 C   0  0  1  0  0  0  0  0  0  0  0  0
   25.5827    6.8591    9.4200 N   0  0  0  0  0  0  0  0  0  0  0  0
   33.8304   11.3483    2.5709 O   0  0  0  0  0  0  0  0  0  0  0  0
   26.5341   11.8320    9.6122 C   0  0  2  0  0  0  0  0  0  0  0  0
   26.9261   10.4115   10.1483 C   0  0  1  0  0  0  0  0  0  0  0  0
   26.0848    9.4253    9.5118 C   0  0  1  0  0  0  0  0  0  0  0  0
   26.1754    9.5380    8.0018 O   0  0  0  0  0  0  0  0  0  0  0  0
   26.4781    7.9606    9.9946 C   0  0  0  0  0  0  0  0  0  0  0  0
   27.9974   11.7847    7.6855 N   0  0  0  0  0  0  0  0  0  0  0  0
   23.0989    8.9062   -2.4837 O   0  0  0  0  0  0  0  0  0  0  0  0
   33.5823    9.8739    4.2811 C   0  0  0  0  0  0  0  0  0  0  0  0
   28.0192   10.2069    9.8639 O   0  0  0  0  0  0  0  0  0  0  0  0
   25.4365   12.0064    9.9089 O   0  0  0  0  0  0  0  0  0  0  0  0
   32.3535    9.3552    2.3262 C   0  0  0  0  0  0  0  0  0  0  0  0
   32.5652   10.7086    4.6870 C   0  0  0  0  0  0  0  0  0  0  0  0
   33.7022    9.9820    2.9585 C   0  0  1  0  0  0  0  0  0  0  0  0
   22.4205   11.4791   -2.3392 F   0  0  0  0  0  0  0  0  0  0  0  0
  1  2  1  6  0  0  0
  1 10  1  0  0  0  0
  1  3  1  0  0  0  0
  3  4  1  1  0  0  0
  3  6  1  0  0  0  0
  5 46  2  0  0  0  0
  6 42  1  6  0  0  0
  6  8  1  0  0  0  0
  7 47  1  0  0  0  0
  8  9  1  0  0  0  0
  8 49  1  1  0  0  0
  9 10  1  0  0  0  0
  9 11  1  6  0  0  0
 11 12  1  0  0  0  0
 13 14  1  1  0  0  0
 13 15  1  0  0  0  0
 13 21  1  0  0  0  0
 14 46  1  0  0  0  0
 15 16  1  0  0  0  0
 16 17  1  1  0  0  0
 16 18  1  0  0  0  0
 18  2  1  6  0  0  0
 18 19  1  0  0  0  0
 19 20  1  1  0  0  0
 19 21  1  0  0  0  0
 21 22  1  6  0  0  0
 23 20  1  6  0  0  0
 23 24  1  0  0  0  0
 23 28  1  0  0  0  0
 24 25  1  1  0  0  0
 24 26  1  0  0  0  0
 26 27  1  0  0  0  0
 26 32  1  1  0  0  0
 27 28  1  0  0  0  0
 27 29  1  6  0  0  0
 29 30  1  0  0  0  0
 31 32  1  6  0  0  0
 31 33  1  0  0  0  0
 31 39  1  0  0  0  0
 33 36  1  0  0  0  0
 33 41  1  6  0  0  0
 34 40  1  0  0  0  0
 35 48  1  0  0  0  0
 36 37  1  0  0  0  0
 36 45  1  6  0  0  0
 37 38  1  0  0  0  0
 37 44  1  6  0  0  0
 38 39  1  0  0  0  0
 38 40  1  6  0  0  0
 43 47  1  0  0  0  0
 46 48  1  0  0  0  0
 48 43  1  1  0  0  0
M  END
>  <CHROM.1>
-160.62646572,-126.48695962,-60.73917885,-162.76405464,-84.44716354,101.92634789
-177.98683583,-71.86001929,-170.52434235,176.99151483,75.02949190,52.21354585
162.11841363,26.98129427,10.19182344,3.31109899,1.80145217,-0.01751110,-1.45448932

>  <Name>
ligand

>  <RI>
0

>  <Rbt.Current_Directory>
/home/itssahil/PROJECTS/Mol_Feturizer/New_Systems/rnas/4PDQ

>  <Rbt.Executable>
rbdock ($Id: //depot/dev/client3/rdock/2013.1/src/exe/rbdock.cxx#4 $)

>  <Rbt.Library>
libRbt.so (2013.1, Build901 2013/11/27)

>  <Rbt.Parameter_File>
/export/apps/rDock/src/rDock_2013.1_src/data/scripts/dock_solv.prm

>  <Rbt.Receptor>
prm/pocket_docking_3.prm

>  <SCORE>
-5.8251

>  <SCORE.INTER>
-6.87393

>  <SCORE.INTER.CONST>
1

>  <SCORE.INTER.POLAR>
0

>  <SCORE.INTER.ROT>
13

>  <SCORE.INTER.SOLV>
20.2651

>  <SCORE.INTER.VDW>
-23.6043

>  <SCORE.INTER.norm>
-0.140284

>  <SCORE.INTRA>
1.0344

>  <SCORE.INTRA.DIHEDRAL>
-13.1294

>  <SCORE.INTRA.DIHEDRAL.0>
34.5115

>  <SCORE.INTRA.POLAR>
0

>  <SCORE.INTRA.POLAR.0>
0

>  <SCORE.INTRA.REPUL>
0

>  <SCORE.INTRA.REPUL.0>
0

>  <SCORE.INTRA.SOLV>
5.98442

>  <SCORE.INTRA.SOLV.lig_0>
-122.812

>  <SCORE.INTRA.VDW>
4.60688

>  <SCORE.INTRA.VDW.0>
-7.46208

>  <SCORE.INTRA.norm>
0.0211102

>  <SCORE.RESTR>
0.0144313

>  <SCORE.RESTR.CAVITY>
0.0144313

>  <SCORE.RESTR.norm>
0.000294516

>  <SCORE.SYSTEM>
0

>  <SCORE.SYSTEM.CONST>
0

>  <SCORE.SYSTEM.DIHEDRAL>
0

>  <SCORE.SYSTEM.SOLV>
0

>  <SCORE.SYSTEM.norm>
0

>  <SCORE.heavy>
49

>  <SCORE.norm>
-0.11888

>  <RMSD>
2.751

$$$$
ligand
 OpenBabel11021811513D
libRbt.so/2013.1/901 2013/11/27
 49 52  0  0  0  0  0  0  0  0999 V2000
   26.4099    8.7741    2.9889 C   0  0  2  0  0  0  0  0  0  0  0  0
   27.6143    8.5386    2.3212 O   0  0  0  0  0  0  0  0  0  0  0  0
   25.9029    7.4414    3.6554 C   0  0  2  0  0  0  0  0  0  0  0  0
   26.9581    6.9375    4.6275 N   0  0  0  0  0  0  0  0  0  0  0  0
   33.4619    9.3466   -0.5180 O   0  0  0  0  0  0  0  0  0  0  0  0
   25.5833    6.3850    2.5720 C   0  0  2  0  0  0  0  0  0  0  0  0
   37.2251   13.4160   -0.8374 N   0  0  0  0  0  0  0  0  0  0  0  0
   24.5304    6.9241    1.5910 C   0  0  2  0  0  0  0  0  0  0  0  0
   25.0063    8.2712    0.8993 C   0  0  2  0  0  0  0  0  0  0  0  0
   25.3614    9.2649    2.0069 O   0  0  0  0  0  0  0  0  0  0  0  0
   23.9127    8.8405   -0.0503 C   0  0  0  0  0  0  0  0  0  0  0  0
   24.3426    9.9546   -0.8172 N   0  0  0  0  0  0  0  0  0  0  0  0
   31.2725   10.4772    1.0320 C   0  0  2  0  0  0  0  0  0  0  0  0
   32.1999   11.3022    0.2036 N   0  0  0  0  0  0  0  0  0  0  0  0
   30.4465    9.5424    0.0220 C   0  0  0  0  0  0  0  0  0  0  0  0
   29.4549    8.6151    0.8191 C   0  0  2  0  0  0  0  0  0  0  0  0
   28.6775    7.7677   -0.0970 N   0  0  0  0  0  0  0  0  0  0  0  0
   28.4689    9.4693    1.6407 C   0  0  2  0  0  0  0  0  0  0  0  0
   29.2523   10.4074    2.6453 C   0  0  2  0  0  0  0  0  0  0  0  0
   28.2271   11.1714    3.3833 O   0  0  0  0  0  0  0  0  0  0  0  0
   30.2113   11.3908    1.8001 C   0  0  1  0  0  0  0  0  0  0  0  0
   30.8851   12.2124    2.7004 O   0  0  0  0  0  0  0  0  0  0  0  0
   28.0765   11.2338    4.6624 C   0  0  1  0  0  0  0  0  0  0  0  0
   29.0868   12.1467    5.4176 C   0  0  2  0  0  0  0  0  0  0  0  0
   30.1766   11.3661    5.7958 O   0  0  0  0  0  0  0  0  0  0  0  0
   28.2436   12.4984    6.5723 C   0  0  1  0  0  0  0  0  0  0  0  0
   26.7852   12.7127    6.0618 C   0  0  2  0  0  0  0  0  0  0  0  0
   26.7541   11.6813    5.1059 O   0  0  0  0  0  0  0  0  0  0  0  0
   26.3767   14.1149    5.6082 C   0  0  0  0  0  0  0  0  0  0  0  0
   27.3361   14.5161    4.6484 O   0  0  0  0  0  0  0  0  0  0  0  0
   27.5622   11.3867    8.6515 C   0  0  2  0  0  0  0  0  0  0  0  0
   28.3575   11.3615    7.5422 O   0  0  0  0  0  0  0  0  0  0  0  0
   28.0838   10.4954    9.7399 C   0  0  1  0  0  0  0  0  0  0  0  0
   23.5758    9.2238    8.4489 N   0  0  0  0  0  0  0  0  0  0  0  0
   33.3602   12.5557   -2.0428 O   0  0  0  0  0  0  0  0  0  0  0  0
   27.0927   10.5334   10.9672 C   0  0  2  0  0  0  0  0  0  0  0  0
   25.6235   10.1242   10.6027 C   0  0  1  0  0  0  0  0  0  0  0  0
   25.1407   11.0010    9.5617 C   0  0  1  0  0  0  0  0  0  0  0  0
   26.0776   10.9829    8.3688 O   0  0  0  0  0  0  0  0  0  0  0  0
   23.6646   10.5934    9.1283 C   0  0  0  0  0  0  0  0  0  0  0  0
   28.1592    9.1653    9.2801 N   0  0  0  0  0  0  0  0  0  0  0  0
   25.1793    5.4429    3.0775 O   0  0  0  0  0  0  0  0  0  0  0  0
   35.0099   12.1899   -0.5246 C   0  0  0  0  0  0  0  0  0  0  0  0
   25.6363    9.0473   10.2054 O   0  0  0  0  0  0  0  0  0  0  0  0
   27.0479   11.6144   11.3580 O   0  0  0  0  0  0  0  0  0  0  0  0
   33.2821   10.5726   -0.5348 C   0  0  0  0  0  0  0  0  0  0  0  0
   35.9948   12.8346   -1.2389 C   0  0  0  0  0  0  0  0  0  0  0  0
   34.1914   11.5966   -1.3927 C   0  0  1  0  0  0  0  0  0  0  0  0
   23.3283    7.1830    2.2731 F   0  0  0  0  0  0  0  0  0  0  0  0
  1  2  1  6  0  0  0
  1 10  1  0  0  0  0
  1  3  1  0  0  0  0
  3  4  1  1  0  0  0
  3  6  1  0  0  0  0
  5 46  2  0  0  0  0
  6 42  1  1  0  0  0
  6  8  1  0  0  0  0
  7 47  1  0  0  0  0
  8  9  1  0  0  0  0
  8 49  1  1  0  0  0
  9 10  1  0  0  0  0
  9 11  1  1  0  0  0
 11 12  1  0  0  0  0
 13 14  1  6  0  0  0
 13 15  1  0  0  0  0
 13 21  1  0  0  0  0
 14 46  1  0  0  0  0
 15 16  1  0  0  0  0
 16 17  1  6  0  0  0
 16 18  1  0  0  0  0
 18  2  1  1  0  0  0
 18 19  1  0  0  0  0
 19 20  1  6  0  0  0
 19 21  1  0  0  0  0
 21 22  1  1  0  0  0
 23 20  1  6  0  0  0
 23 24  1  0  0  0  0
 23 28  1  0  0  0  0
 24 25  1  1  0  0  0
 24 26  1  0  0  0  0
 26 27  1  0  0  0  0
 26 32  1  1  0  0  0
 27 28  1  0  0  0  0
 27 29  1  6  0  0  0
 29 30  1  0  0  0  0
 31 32  1  6  0  0  0
 31 33  1  0  0  0  0
 31 39  1  0  0  0  0
 33 36  1  0  0  0  0
 33 41  1  6  0  0  0
 34 40  1  0  0  0  0
 35 48  1  0  0  0  0
 36 37  1  0  0  0  0
 36 45  1  6  0  0  0
 37 38  1  0  0  0  0
 37 44  1  6  0  0  0
 38 39  1  0  0  0  0
 38 40  1  6  0  0  0
 43 47  1  0  0  0  0
 46 48  1  0  0  0  0
 48 43  1  1  0  0  0
M  END
>  <CHROM.1>
-176.19337340,-166.76774984,-172.83882657,-65.45082121,124.30380714,76.67452642
-173.87766084,53.32376426,-160.20610266,-66.22117340,-167.62925300,-74.01573692
136.46044497,28.22045430,10.29543152,3.88635013,2.36900240,0.51239841,1.22565360

>  <Name>
ligand

>  <RI>
0

>  <Rbt.Current_Directory>
/home/itssahil/PROJECTS/Mol_Feturizer/New_Systems/rnas/4PDQ

>  <Rbt.Executable>
rbdock ($Id: //depot/dev/client3/rdock/2013.1/src/exe/rbdock.cxx#4 $)

>  <Rbt.Library>
libRbt.so (2013.1, Build901 2013/11/27)

>  <Rbt.Parameter_File>
/export/apps/rDock/src/rDock_2013.1_src/data/scripts/dock_solv.prm

>  <Rbt.Receptor>
prm/pocket_docking_6.prm

>  <SCORE>
-14.5642

>  <SCORE.INTER>
-4.86477

>  <SCORE.INTER.CONST>
1

>  <SCORE.INTER.POLAR>
0

>  <SCORE.INTER.ROT>
13

>  <SCORE.INTER.SOLV>
19.4549

>  <SCORE.INTER.VDW>
-21.9948

>  <SCORE.INTER.norm>
-0.099281

>  <SCORE.INTRA>
-9.69944

>  <SCORE.INTRA.DIHEDRAL>
-20.3654

>  <SCORE.INTRA.DIHEDRAL.0>
34.5115

>  <SCORE.INTRA.POLAR>
0

>  <SCORE.INTRA.POLAR.0>
0

>  <SCORE.INTRA.REPUL>
0

>  <SCORE.INTRA.REPUL.0>
0

>  <SCORE.INTRA.SOLV>
-2.64734

>  <SCORE.INTRA.SOLV.lig_0>
-122.812

>  <SCORE.INTRA.VDW>
1.80696

>  <SCORE.INTRA.VDW.0>
-7.46208

>  <SCORE.INTRA.norm>
-0.197948

>  <SCORE.RESTR>
0

>  <SCORE.RESTR.CAVITY>
0

>  <SCORE.RESTR.norm>
0

>  <SCORE.SYSTEM>
0

>  <SCORE.SYSTEM.CONST>
0

>  <SCORE.SYSTEM.DIHEDRAL>
0

>  <SCORE.SYSTEM.SOLV>
0

>  <SCORE.SYSTEM.norm>
0

>  <SCORE.heavy>
49

>  <SCORE.norm>
-0.297229

>  <RMSD>
2.819

$$$$
ligand
 OpenBabel11021811513D
libRbt.so/2013.1/901 2013/11/27
 49 52  0  0  0  0  0  0  0  0999 V2000
   26.9310    8.5410   -0.0685 C   0  0  2  0  0  0  0  0  0  0  0  0
   27.7140    8.9376    1.0185 O   0  0  0  0  0  0  0  0  0  0  0  0
   26.2242    9.7975   -0.7001 C   0  0  2  0  0  0  0  0  0  0  0  0
   27.2833   10.7938   -1.1453 N   0  0  0  0  0  0  0  0  0  0  0  0
   32.6471   11.6729   -0.0144 O   0  0  0  0  0  0  0  0  0  0  0  0
   25.2444   10.4314    0.3148 C   0  0  2  0  0  0  0  0  0  0  0  0
   37.1998   13.6749   -1.3412 N   0  0  0  0  0  0  0  0  0  0  0  0
   24.1968    9.4009    0.7645 C   0  0  2  0  0  0  0  0  0  0  0  0
   24.8732    8.1163    1.4063 C   0  0  2  0  0  0  0  0  0  0  0  0
   25.8703    7.5564    0.3900 O   0  0  0  0  0  0  0  0  0  0  0  0
   23.8096    7.0539    1.8083 C   0  0  0  0  0  0  0  0  0  0  0  0
   24.3481    5.9347    2.4950 N   0  0  0  0  0  0  0  0  0  0  0  0
   31.8842    9.6694    1.9550 C   0  0  2  0  0  0  0  0  0  0  0  0
   33.2680   10.2154    1.8371 N   0  0  0  0  0  0  0  0  0  0  0  0
   31.4545    9.1603    0.4946 C   0  0  0  0  0  0  0  0  0  0  0  0
   30.0071    8.5425    0.5328 C   0  0  2  0  0  0  0  0  0  0  0  0
   29.5937    8.0906   -0.8040 N   0  0  0  0  0  0  0  0  0  0  0  0
   28.9907    9.5931    1.0229 C   0  0  2  0  0  0  0  0  0  0  0  0
   29.3882   10.1197    2.4608 C   0  0  2  0  0  0  0  0  0  0  0  0
   28.3577   11.1065    2.8397 O   0  0  0  0  0  0  0  0  0  0  0  0
   30.8457   10.8057    2.3803 C   0  0  1  0  0  0  0  0  0  0  0  0
   31.1735   11.2690    3.6521 O   0  0  0  0  0  0  0  0  0  0  0  0
   27.9474   11.3821    4.0307 C   0  0  1  0  0  0  0  0  0  0  0  0
   26.8921   12.5223    4.1345 C   0  0  2  0  0  0  0  0  0  0  0  0
   27.5706   13.7248    4.3175 O   0  0  0  0  0  0  0  0  0  0  0  0
   26.2181   12.0854    5.3686 C   0  0  1  0  0  0  0  0  0  0  0  0
   26.1104   10.5295    5.3388 C   0  0  2  0  0  0  0  0  0  0  0  0
   27.3607   10.2532    4.7567 O   0  0  0  0  0  0  0  0  0  0  0  0
   24.8726    9.9027    4.6954 C   0  0  0  0  0  0  0  0  0  0  0  0
   24.8572   10.3458    3.3515 O   0  0  0  0  0  0  0  0  0  0  0  0
   26.6130   12.3442    7.7770 C   0  0  2  0  0  0  0  0  0  0  0  0
   27.0528   12.5873    6.5078 O   0  0  0  0  0  0  0  0  0  0  0  0
   27.4998   12.9724    8.8114 C   0  0  1  0  0  0  0  0  0  0  0  0
   25.0656    8.2055    8.6222 N   0  0  0  0  0  0  0  0  0  0  0  0
   35.9132   10.6313    0.9734 O   0  0  0  0  0  0  0  0  0  0  0  0
   26.9635   12.6096   10.2504 C   0  0  2  0  0  0  0  0  0  0  0  0
   26.8526   11.0672   10.5104 C   0  0  1  0  0  0  0  0  0  0  0  0
   25.9877   10.4875    9.5098 C   0  0  1  0  0  0  0  0  0  0  0  0
   26.4820   10.8225    8.1153 O   0  0  0  0  0  0  0  0  0  0  0  0
   25.8808    8.9121    9.7090 C   0  0  0  0  0  0  0  0  0  0  0  0
   28.8108   12.4686    8.6937 N   0  0  0  0  0  0  0  0  0  0  0  0
   24.7149   11.3151   -0.1801 O   0  0  0  0  0  0  0  0  0  0  0  0
   35.2568   12.3083   -0.4110 C   0  0  0  0  0  0  0  0  0  0  0  0
   27.8994   10.6073   10.4085 O   0  0  0  0  0  0  0  0  0  0  0  0
   25.9021   13.0402   10.3562 O   0  0  0  0  0  0  0  0  0  0  0  0
   33.5049   11.2404    0.7685 C   0  0  0  0  0  0  0  0  0  0  0  0
   36.5054   12.8882   -0.3864 C   0  0  0  0  0  0  0  0  0  0  0  0
   35.0411   11.7420    0.7756 C   0  0  1  0  0  0  0  0  0  0  0  0
   23.4283    8.9868   -0.3378 F   0  0  0  0  0  0  0  0  0  0  0  0
  1  2  1  1  0  0  0
  1 10  1  0  0  0  0
  1  3  1  0  0  0  0
  3  4  1  1  0  0  0
  3  6  1  0  0  0  0
  5 46  2  0  0  0  0
  6 42  1  6  0  0  0
  6  8  1  0  0  0  0
  7 47  1  0  0  0  0
  8  9  1  0  0  0  0
  8 49  1  6  0  0  0
  9 10  1  0  0  0  0
  9 11  1  6  0  0  0
 11 12  1  0  0  0  0
 13 14  1  6  0  0  0
 13 15  1  0  0  0  0
 13 21  1  0  0  0  0
 14 46  1  0  0  0  0
 15 16  1  0  0  0  0
 16 17  1  6  0  0  0
 16 18  1  0  0  0  0
 18  2  1  1  0  0  0
 18 19  1  0  0  0  0
 19 20  1  6  0  0  0
 19 21  1  0  0  0  0
 21 22  1  1  0  0  0
 23 20  1  6  0  0  0
 23 24  1  0  0  0  0
 23 28  1  0  0  0  0
 24 25  1  1  0  0  0
 24 26  1  0  0  0  0
 26 27  1  0  0  0  0
 26 32  1  1  0  0  0
 27 28  1  0  0  0  0
 27 29  1  6  0  0  0
 29 30  1  0  0  0  0
 31 32  1  6  0  0  0
 31 33  1  0  0  0  0
 31 39  1  0  0  0  0
 33 36  1  0  0  0  0
 33 41  1  1  0  0  0
 34 40  1  0  0  0  0
 35 48  1  0  0  0  0
 36 37  1  0  0  0  0
 36 45  1  6  0  0  0
 37 38  1  0  0  0  0
 37 44  1  6  0  0  0
 38 39  1  0  0  0  0
 38 40  1  6  0  0  0
 43 47  1  0  0  0  0
 46 48  1  0  0  0  0
 48 43  1  6  0  0  0
M  END
>  <CHROM.1>
-76.00829659,-70.90134298,-174.72162113,52.26890428,149.71976473,177.18928977
178.03157538,59.77815939,-176.55119579,-175.59724410,-176.07532014,-67.55878043
-139.36798583,28.29511583,10.54216842,3.41734759,0.78651002,-0.31339190,-1.84174324

>  <Name>
ligand

>  <RI>
0

>  <Rbt.Current_Directory>
/home/itssahil/PROJECTS/Mol_Feturizer/New_Systems/rnas/4PDQ

>  <Rbt.Executable>
rbdock ($Id: //depot/dev/client3/rdock/2013.1/src/exe/rbdock.cxx#4 $)

>  <Rbt.Library>
libRbt.so (2013.1, Build901 2013/11/27)

>  <Rbt.Parameter_File>
/export/apps/rDock/src/rDock_2013.1_src/data/scripts/dock_solv.prm

>  <Rbt.Receptor>
prm/pocket_docking_4.prm

>  <SCORE>
-11.1346

>  <SCORE.INTER>
-1.28661

>  <SCORE.INTER.CONST>
1

>  <SCORE.INTER.POLAR>
0

>  <SCORE.INTER.ROT>
13

>  <SCORE.INTER.SOLV>
23.608

>  <SCORE.INTER.VDW>
-20.9937

>  <SCORE.INTER.norm>
-0.0262573

>  <SCORE.INTRA>
-9.84795

>  <SCORE.INTRA.DIHEDRAL>
-27.239

>  <SCORE.INTRA.DIHEDRAL.0>
34.5115

>  <SCORE.INTRA.POLAR>
0

>  <SCORE.INTRA.POLAR.0>
0

>  <SCORE.INTRA.REPUL>
0

>  <SCORE.INTRA.REPUL.0>
0

>  <SCORE.INTRA.SOLV>
0.424095

>  <SCORE.INTRA.SOLV.lig_0>
-122.812

>  <SCORE.INTRA.VDW>
3.5595

>  <SCORE.INTRA.VDW.0>
-7.46208

>  <SCORE.INTRA.norm>
-0.200979

>  <SCORE.RESTR>
0

>  <SCORE.RESTR.CAVITY>
0

>  <SCORE.RESTR.norm>
0

>  <SCORE.SYSTEM>
0

>  <SCORE.SYSTEM.CONST>
0

>  <SCORE.SYSTEM.DIHEDRAL>
0

>  <SCORE.SYSTEM.SOLV>
0

>  <SCORE.SYSTEM.norm>
0

>  <SCORE.heavy>
49

>  <SCORE.norm>
-0.227236

>  <RMSD>
2.840

$$$$
ligand
 OpenBabel11021811513D
libRbt.so/2013.1/901 2013/11/27
 49 52  0  0  0  0  0  0  0  0999 V2000
   25.5334   10.2014    0.8114 C   0  0  2  0  0  0  0  0  0  0  0  0
   26.8034    9.7959    0.3933 O   0  0  0  0  0  0  0  0  0  0  0  0
   24.4697    9.1130    0.4100 C   0  0  2  0  0  0  0  0  0  0  0  0
   24.8430    7.7886    1.0574 N   0  0  0  0  0  0  0  0  0  0  0  0
   33.6128    9.3944   -0.6488 O   0  0  0  0  0  0  0  0  0  0  0  0
   24.3846    8.9847   -1.1289 C   0  0  2  0  0  0  0  0  0  0  0  0
   37.4836   12.8549   -0.5607 N   0  0  0  0  0  0  0  0  0  0  0  0
   24.0260   10.3387   -1.7611 C   0  0  2  0  0  0  0  0  0  0  0  0
   25.0772   11.4642   -1.3765 C   0  0  2  0  0  0  0  0  0  0  0  0
   25.1668   11.5177    0.1498 O   0  0  0  0  0  0  0  0  0  0  0  0
   24.6776   12.8443   -1.9742 C   0  0  0  0  0  0  0  0  0  0  0  0
   24.7412   12.8957   -3.3910 N   0  0  0  0  0  0  0  0  0  0  0  0
   31.0619   10.5664    0.1221 C   0  0  2  0  0  0  0  0  0  0  0  0
   32.3679   11.2701    0.2839 N   0  0  0  0  0  0  0  0  0  0  0  0
   30.0025   11.6558   -0.3948 C   0  0  0  0  0  0  0  0  0  0  0  0
   28.5939   10.9890   -0.6170 C   0  0  2  0  0  0  0  0  0  0  0  0
   27.6090   11.9816   -1.0715 N   0  0  0  0  0  0  0  0  0  0  0  0
   28.0829   10.3695    0.6991 C   0  0  2  0  0  0  0  0  0  0  0  0
   29.1080    9.2923    1.2391 C   0  0  2  0  0  0  0  0  0  0  0  0
   28.5279    8.7579    2.4870 O   0  0  0  0  0  0  0  0  0  0  0  0
   30.5228   10.0141    1.5202 C   0  0  1  0  0  0  0  0  0  0  0  0
   31.4077    9.0524    2.0016 O   0  0  0  0  0  0  0  0  0  0  0  0
   28.2087    9.4257    3.5429 C   0  0  1  0  0  0  0  0  0  0  0  0
   27.9925    8.5836    4.8348 C   0  0  2  0  0  0  0  0  0  0  0  0
   26.6457    8.2355    4.9043 O   0  0  0  0  0  0  0  0  0  0  0  0
   28.3396    9.6135    5.8282 C   0  0  1  0  0  0  0  0  0  0  0  0
   29.5468   10.4333    5.2769 C   0  0  2  0  0  0  0  0  0  0  0  0
   29.1636   10.4690    3.9240 O   0  0  0  0  0  0  0  0  0  0  0  0
   30.9598    9.9476    5.6030 C   0  0  0  0  0  0  0  0  0  0  0  0
   31.0603    9.9398    7.0145 O   0  0  0  0  0  0  0  0  0  0  0  0
   26.2070   10.0492    6.9620 C   0  0  2  0  0  0  0  0  0  0  0  0
   27.1102   10.4490    6.0198 O   0  0  0  0  0  0  0  0  0  0  0  0
   24.9417   10.8537    6.9080 C   0  0  1  0  0  0  0  0  0  0  0  0
   27.8303    9.0225   11.0376 N   0  0  0  0  0  0  0  0  0  0  0  0
   36.0509   10.5775    0.2744 O   0  0  0  0  0  0  0  0  0  0  0  0
   23.9675   10.3741    8.0530 C   0  0  2  0  0  0  0  0  0  0  0  0
   24.5923   10.4609    9.4885 C   0  0  1  0  0  0  0  0  0  0  0  0
   25.8016    9.6721    9.5183 C   0  0  1  0  0  0  0  0  0  0  0  0
   26.7564   10.1137    8.4254 O   0  0  0  0  0  0  0  0  0  0  0  0
   26.4950    9.7668   10.9478 C   0  0  0  0  0  0  0  0  0  0  0  0
   25.2274   12.2175    7.1200 N   0  0  0  0  0  0  0  0  0  0  0  0
   23.5784    8.2196   -1.3952 O   0  0  0  0  0  0  0  0  0  0  0  0
   35.0758   12.1574   -1.0343 C   0  0  0  0  0  0  0  0  0  0  0  0
   24.8582   11.5571    9.7013 O   0  0  0  0  0  0  0  0  0  0  0  0
   23.7152    9.2671    7.8681 O   0  0  0  0  0  0  0  0  0  0  0  0
   33.5964   10.5318   -0.1571 C   0  0  0  0  0  0  0  0  0  0  0  0
   36.1017   13.0496   -0.8164 C   0  0  0  0  0  0  0  0  0  0  0  0
   34.9234   11.4259    0.0689 C   0  0  1  0  0  0  0  0  0  0  0  0
   22.7579   10.7537   -1.3173 F   0  0  0  0  0  0  0  0  0  0  0  0
  1  2  1  6  0  0  0
  1 10  1  0  0  0  0
  1  3  1  0  0  0  0
  3  4  1  1  0  0  0
  3  6  1  0  0  0  0
  5 46  2  0  0  0  0
  6 42  1  1  0  0  0
  6  8  1  0  0  0  0
  7 47  1  0  0  0  0
  8  9  1  0  0  0  0
  8 49  1  1  0  0  0
  9 10  1  0  0  0  0
  9 11  1  1  0  0  0
 11 12  1  0  0  0  0
 13 14  1  1  0  0  0
 13 15  1  0  0  0  0
 13 21  1  0  0  0  0
 14 46  1  0  0  0  0
 15 16  1  0  0  0  0
 16 17  1  1  0  0  0
 16 18  1  0  0  0  0
 18  2  1  6  0  0  0
 18 19  1  0  0  0  0
 19 20  1  1  0  0  0
 19 21  1  0  0  0  0
 21 22  1  6  0  0  0
 23 20  1  6  0  0  0
 23 24  1  0  0  0  0
 23 28  1  0  0  0  0
 24 25  1  1  0  0  0
 24 26  1  0  0  0  0
 26 27  1  0  0  0  0
 26 32  1  6  0  0  0
 27 28  1  0  0  0  0
 27 29  1  6  0  0  0
 29 30  1  0  0  0  0
 31 32  1  6  0  0  0
 31 33  1  0  0  0  0
 31 39  1  0  0  0  0
 33 36  1  0  0  0  0
 33 41  1  1  0  0  0
 34 40  1  0  0  0  0
 35 48  1  0  0  0  0
 36 37  1  0  0  0  0
 36 45  1  6  0  0  0
 37 38  1  0  0  0  0
 37 44  1  6  0  0  0
 38 39  1  0  0  0  0
 38 40  1  1  0  0  0
 43 47  1  0  0  0  0
 46 48  1  0  0  0  0
 48 43  1  6  0  0  0
M  END
>  <CHROM.1>
-170.48656087,-110.97911153,-66.87821141,-139.44006946,-58.33795064,-163.68848850
88.15276980,-59.23179079,-171.59365675,-176.60182879,63.26052589,-67.73907319
-28.73450508,28.12741007,10.36105249,2.79970217,2.23402311,0.07321171,1.65333078

>  <Name>
ligand

>  <RI>
0

>  <Rbt.Current_Directory>
/home/itssahil/PROJECTS/Mol_Feturizer/New_Systems/rnas/4PDQ

>  <Rbt.Executable>
rbdock ($Id: //depot/dev/client3/rdock/2013.1/src/exe/rbdock.cxx#4 $)

>  <Rbt.Library>
libRbt.so (2013.1, Build901 2013/11/27)

>  <Rbt.Parameter_File>
/export/apps/rDock/src/rDock_2013.1_src/data/scripts/dock_solv.prm

>  <Rbt.Receptor>
prm/pocket_docking_3.prm

>  <SCORE>
-12.0188

>  <SCORE.INTER>
-6.71629

>  <SCORE.INTER.CONST>
1

>  <SCORE.INTER.POLAR>
0

>  <SCORE.INTER.ROT>
13

>  <SCORE.INTER.SOLV>
18.0822

>  <SCORE.INTER.VDW>
-22.7716

>  <SCORE.INTER.norm>
-0.137067

>  <SCORE.INTRA>
-5.30247

>  <SCORE.INTRA.DIHEDRAL>
-19.4232

>  <SCORE.INTRA.DIHEDRAL.0>
34.5115

>  <SCORE.INTRA.POLAR>
0

>  <SCORE.INTRA.POLAR.0>
0

>  <SCORE.INTRA.REPUL>
0

>  <SCORE.INTRA.REPUL.0>
0

>  <SCORE.INTRA.SOLV>
1.22877

>  <SCORE.INTRA.SOLV.lig_0>
-122.812

>  <SCORE.INTRA.VDW>
3.79472

>  <SCORE.INTRA.VDW.0>
-7.46208

>  <SCORE.INTRA.norm>
-0.108214

>  <SCORE.RESTR>
0

>  <SCORE.RESTR.CAVITY>
0

>  <SCORE.RESTR.norm>
0

>  <SCORE.SYSTEM>
0

>  <SCORE.SYSTEM.CONST>
0

>  <SCORE.SYSTEM.DIHEDRAL>
0

>  <SCORE.SYSTEM.SOLV>
0

>  <SCORE.SYSTEM.norm>
0

>  <SCORE.heavy>
49

>  <SCORE.norm>
-0.245281

>  <RMSD>
2.896

$$$$
ligand
 OpenBabel11021811513D
libRbt.so/2013.1/901 2013/11/27
 49 52  0  0  0  0  0  0  0  0999 V2000
   26.4142   10.7731    2.3165 C   0  0  2  0  0  0  0  0  0  0  0  0
   27.6895   10.2163    2.1925 O   0  0  0  0  0  0  0  0  0  0  0  0
   25.3467    9.6264    2.4676 C   0  0  2  0  0  0  0  0  0  0  0  0
   25.6820    8.7917    3.6937 N   0  0  0  0  0  0  0  0  0  0  0  0
   34.5512   10.4441    2.3935 O   0  0  0  0  0  0  0  0  0  0  0  0
   25.3038    8.7583    1.1884 C   0  0  2  0  0  0  0  0  0  0  0  0
   36.8459    8.7875    0.4958 N   0  0  0  0  0  0  0  0  0  0  0  0
   24.9832    9.6263   -0.0385 C   0  0  2  0  0  0  0  0  0  0  0  0
   26.0392   10.7970   -0.2229 C   0  0  2  0  0  0  0  0  0  0  0  0
   26.0858   11.5938    1.0823 O   0  0  0  0  0  0  0  0  0  0  0  0
   25.6770   11.7047   -1.4339 C   0  0  0  0  0  0  0  0  0  0  0  0
   24.4768   12.4416   -1.2595 N   0  0  0  0  0  0  0  0  0  0  0  0
   31.8934   10.6558    1.2246 C   0  0  2  0  0  0  0  0  0  0  0  0
   33.1271   11.1518    0.5471 N   0  0  0  0  0  0  0  0  0  0  0  0
   30.8215   10.3368    0.0733 C   0  0  0  0  0  0  0  0  0  0  0  0
   29.4895    9.7813    0.7022 C   0  0  2  0  0  0  0  0  0  0  0  0
   28.4918    9.5041   -0.3415 N   0  0  0  0  0  0  0  0  0  0  0  0
   28.8911   10.8115    1.6809 C   0  0  2  0  0  0  0  0  0  0  0  0
   29.9259   11.1519    2.8281 C   0  0  2  0  0  0  0  0  0  0  0  0
   29.2601   12.1321    3.7087 O   0  0  0  0  0  0  0  0  0  0  0  0
   31.2543   11.7793    2.1626 C   0  0  1  0  0  0  0  0  0  0  0  0
   32.1482   12.0790    3.1877 O   0  0  0  0  0  0  0  0  0  0  0  0
   28.4585   11.8784    4.6864 C   0  0  1  0  0  0  0  0  0  0  0  0
   29.0526   11.0194    5.8413 C   0  0  2  0  0  0  0  0  0  0  0  0
   28.7960    9.6796    5.5604 O   0  0  0  0  0  0  0  0  0  0  0  0
   28.2079   11.5157    6.9404 C   0  0  1  0  0  0  0  0  0  0  0  0
   28.0074   13.0503    6.7445 C   0  0  2  0  0  0  0  0  0  0  0  0
   27.8940   13.0602    5.3426 O   0  0  0  0  0  0  0  0  0  0  0  0
   29.0230   13.9993    7.3823 C   0  0  0  0  0  0  0  0  0  0  0  0
   28.9930   13.7357    8.7724 O   0  0  0  0  0  0  0  0  0  0  0  0
   26.1008   10.7731    7.9564 C   0  0  2  0  0  0  0  0  0  0  0  0
   26.9224   10.7487    6.8665 O   0  0  0  0  0  0  0  0  0  0  0  0
   24.8111   10.0480    7.7071 C   0  0  1  0  0  0  0  0  0  0  0  0
   24.0533   14.0097   11.4865 N   0  0  0  0  0  0  0  0  0  0  0  0
   35.5220   12.9543    0.2402 O   0  0  0  0  0  0  0  0  0  0  0  0
   23.8926   10.1597    8.9854 C   0  0  2  0  0  0  0  0  0  0  0  0
   23.5970   11.6367    9.4210 C   0  0  1  0  0  0  0  0  0  0  0  0
   24.8511   12.3102    9.6642 C   0  0  1  0  0  0  0  0  0  0  0  0
   25.7539   12.2169    8.4487 O   0  0  0  0  0  0  0  0  0  0  0  0
   24.6001   13.8292   10.0676 C   0  0  0  0  0  0  0  0  0  0  0  0
   24.1274   10.6373    6.6248 N   0  0  0  0  0  0  0  0  0  0  0  0
   24.4945    7.9599    1.3065 O   0  0  0  0  0  0  0  0  0  0  0  0
   36.7655   11.2629    1.1078 C   0  0  0  0  0  0  0  0  0  0  0  0
   23.0522   12.1652    8.5599 O   0  0  0  0  0  0  0  0  0  0  0  0
   24.4398    9.6586    9.8644 O   0  0  0  0  0  0  0  0  0  0  0  0
   34.4230   10.9737    1.2805 C   0  0  0  0  0  0  0  0  0  0  0  0
   37.3220   10.1217    0.5750 C   0  0  0  0  0  0  0  0  0  0  0  0
   35.6625   11.5462    0.4160 C   0  0  1  0  0  0  0  0  0  0  0  0
   23.7091   10.2041    0.1032 F   0  0  0  0  0  0  0  0  0  0  0  0
  1  2  1  6  0  0  0
  1 10  1  0  0  0  0
  1  3  1  0  0  0  0
  3  4  1  1  0  0  0
  3  6  1  0  0  0  0
  5 46  2  0  0  0  0
  6 42  1  1  0  0  0
  6  8  1  0  0  0  0
  7 47  1  0  0  0  0
  8  9  1  0  0  0  0
  8 49  1  1  0  0  0
  9 10  1  0  0  0  0
  9 11  1  6  0  0  0
 11 12  1  0  0  0  0
 13 14  1  6  0  0  0
 13 15  1  0  0  0  0
 13 21  1  0  0  0  0
 14 46  1  0  0  0  0
 15 16  1  0  0  0  0
 16 17  1  6  0  0  0
 16 18  1  0  0  0  0
 18  2  1  1  0  0  0
 18 19  1  0  0  0  0
 19 20  1  1  0  0  0
 19 21  1  0  0  0  0
 21 22  1  1  0  0  0
 23 20  1  6  0  0  0
 23 24  1  0  0  0  0
 23 28  1  0  0  0  0
 24 25  1  6  0  0  0
 24 26  1  0  0  0  0
 26 27  1  0  0  0  0
 26 32  1  6  0  0  0
 27 28  1  0  0  0  0
 27 29  1  6  0  0  0
 29 30  1  0  0  0  0
 31 32  1  6  0  0  0
 31 33  1  0  0  0  0
 31 39  1  0  0  0  0
 33 36  1  0  0  0  0
 33 41  1  6  0  0  0
 34 40  1  0  0  0  0
 35 48  1  0  0  0  0
 36 37  1  0  0  0  0
 36 45  1  1  0  0  0
 37 38  1  0  0  0  0
 37 44  1  6  0  0  0
 38 39  1  0  0  0  0
 38 40  1  6  0  0  0
 43 47  1  0  0  0  0
 46 48  1  0  0  0  0
 48 43  1  1  0  0  0
M  END
>  <CHROM.1>
161.16116307,-132.48132828,66.33735704,-154.86006247,84.92146711,60.24625749
164.02221748,-58.96108690,175.88036055,73.68509564,-63.83643019,-142.00724493
-116.92563689,28.27254300,11.11344596,3.90046643,2.44905696,0.11065656,1.32998916

>  <Name>
ligand

>  <RI>
0

>  <Rbt.Current_Directory>
/home/itssahil/PROJECTS/Mol_Feturizer/New_Systems/rnas/4PDQ

>  <Rbt.Executable>
rbdock ($Id: //depot/dev/client3/rdock/2013.1/src/exe/rbdock.cxx#4 $)

>  <Rbt.Library>
libRbt.so (2013.1, Build901 2013/11/27)

>  <Rbt.Parameter_File>
/export/apps/rDock/src/rDock_2013.1_src/data/scripts/dock_solv.prm

>  <Rbt.Receptor>
prm/pocket_docking_5.prm

>  <SCORE>
-6.80253

>  <SCORE.INTER>
-1.68438

>  <SCORE.INTER.CONST>
1

>  <SCORE.INTER.POLAR>
0

>  <SCORE.INTER.ROT>
13

>  <SCORE.INTER.SOLV>
21.4115

>  <SCORE.INTER.VDW>
-20.5268

>  <SCORE.INTER.norm>
-0.0343752

>  <SCORE.INTRA>
-5.11814

>  <SCORE.INTRA.DIHEDRAL>
-16.7314

>  <SCORE.INTRA.DIHEDRAL.0>
34.5115

>  <SCORE.INTRA.POLAR>
0

>  <SCORE.INTRA.POLAR.0>
0

>  <SCORE.INTRA.REPUL>
0

>  <SCORE.INTRA.REPUL.0>
0

>  <SCORE.INTRA.SOLV>
4.04706

>  <SCORE.INTRA.SOLV.lig_0>
-122.812

>  <SCORE.INTRA.VDW>
1.22401

>  <SCORE.INTRA.VDW.0>
-7.46208

>  <SCORE.INTRA.norm>
-0.104452

>  <SCORE.RESTR>
0

>  <SCORE.RESTR.CAVITY>
0

>  <SCORE.RESTR.norm>
0

>  <SCORE.SYSTEM>
0

>  <SCORE.SYSTEM.CONST>
0

>  <SCORE.SYSTEM.DIHEDRAL>
0

>  <SCORE.SYSTEM.SOLV>
0

>  <SCORE.SYSTEM.norm>
0

>  <SCORE.heavy>
49

>  <SCORE.norm>
-0.138827

>  <RMSD>
2.951

$$$$
ligand
 OpenBabel11021811513D
libRbt.so/2013.1/901 2013/11/27
 49 52  0  0  0  0  0  0  0  0999 V2000
   27.8703    9.8034    2.7253 C   0  0  2  0  0  0  0  0  0  0  0  0
   28.9053    9.1106    2.0924 O   0  0  0  0  0  0  0  0  0  0  0  0
   26.5587    8.9337    2.7043 C   0  0  2  0  0  0  0  0  0  0  0  0
   26.8240    7.6144    3.4125 N   0  0  0  0  0  0  0  0  0  0  0  0
   35.0904    6.5196    1.7716 O   0  0  0  0  0  0  0  0  0  0  0  0
   26.0853    8.7079    1.2494 C   0  0  2  0  0  0  0  0  0  0  0  0
   37.2828   11.3544    0.0775 N   0  0  0  0  0  0  0  0  0  0  0  0
   25.8431   10.0541    0.5490 C   0  0  2  0  0  0  0  0  0  0  0  0
   27.1456   10.9613    0.5520 C   0  0  2  0  0  0  0  0  0  0  0  0
   27.6064   11.1123    2.0029 O   0  0  0  0  0  0  0  0  0  0  0  0
   26.8774   12.3443   -0.1093 C   0  0  0  0  0  0  0  0  0  0  0  0
   26.4721   12.2618   -1.4668 N   0  0  0  0  0  0  0  0  0  0  0  0
   33.2062    8.6490    2.3962 C   0  0  2  0  0  0  0  0  0  0  0  0
   34.6584    8.8879    2.1488 N   0  0  0  0  0  0  0  0  0  0  0  0
   32.4836    8.6249    0.9631 C   0  0  0  0  0  0  0  0  0  0  0  0
   30.9422    8.3519    1.1303 C   0  0  2  0  0  0  0  0  0  0  0  0
   30.2653    8.3475   -0.1749 N   0  0  0  0  0  0  0  0  0  0  0  0
   30.2980    9.4462    2.0047 C   0  0  2  0  0  0  0  0  0  0  0  0
   30.9914    9.4995    3.4257 C   0  0  2  0  0  0  0  0  0  0  0  0
   30.3034   10.5642    4.1823 O   0  0  0  0  0  0  0  0  0  0  0  0
   32.5547    9.8450    3.2302 C   0  0  1  0  0  0  0  0  0  0  0  0
   33.1446    9.8951    4.4908 O   0  0  0  0  0  0  0  0  0  0  0  0
   29.6320   10.4302    5.2751 C   0  0  1  0  0  0  0  0  0  0  0  0
   30.1933    9.3904    6.2892 C   0  0  2  0  0  0  0  0  0  0  0  0
   29.5988    8.1598    6.0210 O   0  0  0  0  0  0  0  0  0  0  0  0
   29.6694    9.9884    7.5285 C   0  0  1  0  0  0  0  0  0  0  0  0
   29.7924   11.5389    7.4099 C   0  0  2  0  0  0  0  0  0  0  0  0
   29.4617   11.6626    6.0484 O   0  0  0  0  0  0  0  0  0  0  0  0
   31.0849   12.2005    7.8904 C   0  0  0  0  0  0  0  0  0  0  0  0
   31.3956   11.6047    9.1359 O   0  0  0  0  0  0  0  0  0  0  0  0
   27.5260    9.9704    8.7239 C   0  0  2  0  0  0  0  0  0  0  0  0
   28.2489    9.5272    7.6541 O   0  0  0  0  0  0  0  0  0  0  0  0
   27.8419    9.2045    9.9747 C   0  0  1  0  0  0  0  0  0  0  0  0
   23.1468    8.9416    8.7492 N   0  0  0  0  0  0  0  0  0  0  0  0
   37.8429    6.9396    1.4251 O   0  0  0  0  0  0  0  0  0  0  0  0
   26.9371    9.7330   11.1546 C   0  0  2  0  0  0  0  0  0  0  0  0
   25.4002    9.6512   10.8544 C   0  0  1  0  0  0  0  0  0  0  0  0
   25.1198   10.4028    9.6536 C   0  0  1  0  0  0  0  0  0  0  0  0
   25.9784    9.9136    8.5027 O   0  0  0  0  0  0  0  0  0  0  0  0
   23.5741   10.3108    9.2855 C   0  0  0  0  0  0  0  0  0  0  0  0
   27.5603    7.8363    9.7871 N   0  0  0  0  0  0  0  0  0  0  0  0
   25.1113    8.1099    1.2628 O   0  0  0  0  0  0  0  0  0  0  0  0
   37.0493    8.8458    0.4782 C   0  0  0  0  0  0  0  0  0  0  0  0
   25.1247    8.5511   10.6773 O   0  0  0  0  0  0  0  0  0  0  0  0
   27.1826   10.8440   11.3241 O   0  0  0  0  0  0  0  0  0  0  0  0
   35.5018    7.6864    1.8426 C   0  0  0  0  0  0  0  0  0  0  0  0
   37.1726   10.1669    0.8460 C   0  0  0  0  0  0  0  0  0  0  0  0
   37.0409    8.1075    1.5873 C   0  0  1  0  0  0  0  0  0  0  0  0
   24.8177   10.7579    1.2053 F   0  0  0  0  0  0  0  0  0  0  0  0
  1  2  1  6  0  0  0
  1 10  1  0  0  0  0
  1  3  1  0  0  0  0
  3  4  1  6  0  0  0
  3  6  1  0  0  0  0
  5 46  2  0  0  0  0
  6 42  1  1  0  0  0
  6  8  1  0  0  0  0
  7 47  1  0  0  0  0
  8  9  1  0  0  0  0
  8 49  1  1  0  0  0
  9 10  1  0  0  0  0
  9 11  1  1  0  0  0
 11 12  1  0  0  0  0
 13 14  1  6  0  0  0
 13 15  1  0  0  0  0
 13 21  1  0  0  0  0
 14 46  1  0  0  0  0
 15 16  1  0  0  0  0
 16 17  1  6  0  0  0
 16 18  1  0  0  0  0
 18  2  1  1  0  0  0
 18 19  1  0  0  0  0
 19 20  1  1  0  0  0
 19 21  1  0  0  0  0
 21 22  1  1  0  0  0
 23 20  1  6  0  0  0
 23 24  1  0  0  0  0
 23 28  1  0  0  0  0
 24 25  1  6  0  0  0
 24 26  1  0  0  0  0
 26 27  1  0  0  0  0
 26 32  1  6  0  0  0
 27 28  1  0  0  0  0
 27 29  1  6  0  0  0
 29 30  1  0  0  0  0
 31 32  1  6  0  0  0
 31 33  1  0  0  0  0
 31 39  1  0  0  0  0
 33 36  1  0  0  0  0
 33 41  1  6  0  0  0
 34 40  1  0  0  0  0
 35 48  1  0  0  0  0
 36 37  1  0  0  0  0
 36 45  1  6  0  0  0
 37 38  1  0  0  0  0
 37 44  1  6  0  0  0
 38 39  1  0  0  0  0
 38 40  1  6  0  0  0
 43 47  1  0  0  0  0
 46 48  1  0  0  0  0
 48 43  1  6  0  0  0
M  END
>  <CHROM.1>
-172.47821332,-177.36418261,-60.66549650,-85.05165643,118.07237949,36.70344901
-178.84566420,-44.78640426,-79.55128713,-72.22700739,177.30188321,-137.54657985
-6.41152922,29.56726852,9.62694130,4.49957297,2.40736080,-0.09984990,1.56819574

>  <Name>
ligand

>  <RI>
0

>  <Rbt.Current_Directory>
/home/itssahil/PROJECTS/Mol_Feturizer/New_Systems/rnas/4PDQ

>  <Rbt.Executable>
rbdock ($Id: //depot/dev/client3/rdock/2013.1/src/exe/rbdock.cxx#4 $)

>  <Rbt.Library>
libRbt.so (2013.1, Build901 2013/11/27)

>  <Rbt.Parameter_File>
/export/apps/rDock/src/rDock_2013.1_src/data/scripts/dock_solv.prm

>  <Rbt.Receptor>
prm/pocket_docking_4.prm

>  <SCORE>
-7.59115

>  <SCORE.INTER>
-0.119185

>  <SCORE.INTER.CONST>
1

>  <SCORE.INTER.POLAR>
0

>  <SCORE.INTER.ROT>
13

>  <SCORE.INTER.SOLV>
18.3206

>  <SCORE.INTER.VDW>
-18.453

>  <SCORE.INTER.norm>
-0.00243235

>  <SCORE.INTRA>
-7.47197

>  <SCORE.INTRA.DIHEDRAL>
-16.1319

>  <SCORE.INTRA.DIHEDRAL.0>
34.5115

>  <SCORE.INTRA.POLAR>
0

>  <SCORE.INTRA.POLAR.0>
0

>  <SCORE.INTRA.REPUL>
0

>  <SCORE.INTRA.REPUL.0>
0

>  <SCORE.INTRA.SOLV>
-2.52964

>  <SCORE.INTRA.SOLV.lig_0>
-122.812

>  <SCORE.INTRA.VDW>
1.85879

>  <SCORE.INTRA.VDW.0>
-7.46208

>  <SCORE.INTRA.norm>
-0.152489

>  <SCORE.RESTR>
0

>  <SCORE.RESTR.CAVITY>
0

>  <SCORE.RESTR.norm>
0

>  <SCORE.SYSTEM>
0

>  <SCORE.SYSTEM.CONST>
0

>  <SCORE.SYSTEM.DIHEDRAL>
0

>  <SCORE.SYSTEM.SOLV>
0

>  <SCORE.SYSTEM.norm>
0

>  <SCORE.heavy>
49

>  <SCORE.norm>
-0.154922

>  <RMSD>
3.091

$$$$
ligand
 OpenBabel11021811513D
libRbt.so/2013.1/901 2013/11/27
 49 52  0  0  0  0  0  0  0  0999 V2000
   27.0287   10.0463    1.2437 C   0  0  2  0  0  0  0  0  0  0  0  0
   28.1244   10.0201    0.3771 O   0  0  0  0  0  0  0  0  0  0  0  0
   26.4385    8.5953    1.3972 C   0  0  2  0  0  0  0  0  0  0  0  0
   27.5194    7.6721    1.9374 N   0  0  0  0  0  0  0  0  0  0  0  0
   34.9331   10.4309    1.0405 O   0  0  0  0  0  0  0  0  0  0  0  0
   25.8907    8.0904    0.0419 C   0  0  2  0  0  0  0  0  0  0  0  0
   38.3434   13.7954   -1.2694 N   0  0  0  0  0  0  0  0  0  0  0  0
   24.8153    9.0492   -0.4928 C   0  0  2  0  0  0  0  0  0  0  0  0
   25.3739   10.5256   -0.6594 C   0  0  2  0  0  0  0  0  0  0  0  0
   25.9519   10.9611    0.6884 O   0  0  0  0  0  0  0  0  0  0  0  0
   24.2650   11.5019   -1.1480 C   0  0  0  0  0  0  0  0  0  0  0  0
   24.7462   12.7938   -1.4849 N   0  0  0  0  0  0  0  0  0  0  0  0
   32.3011   11.1257    0.0087 C   0  0  2  0  0  0  0  0  0  0  0  0
   33.5084   11.9808   -0.1868 N   0  0  0  0  0  0  0  0  0  0  0  0
   31.2466   11.5348   -1.1302 C   0  0  0  0  0  0  0  0  0  0  0  0
   29.9441   10.6585   -1.0125 C   0  0  2  0  0  0  0  0  0  0  0  0
   28.9617   11.0379   -2.0385 N   0  0  0  0  0  0  0  0  0  0  0  0
   29.2946   10.8509    0.3725 C   0  0  2  0  0  0  0  0  0  0  0  0
   30.3109   10.4597    1.5201 C   0  0  2  0  0  0  0  0  0  0  0  0
   29.5966   10.6699    2.7949 O   0  0  0  0  0  0  0  0  0  0  0  0
   31.6063   11.4151    1.4173 C   0  0  1  0  0  0  0  0  0  0  0  0
   32.4838   11.0609    2.4391 O   0  0  0  0  0  0  0  0  0  0  0  0
   29.6286    9.9110    3.8370 C   0  0  1  0  0  0  0  0  0  0  0  0
   31.0478    9.5137    4.3397 C   0  0  2  0  0  0  0  0  0  0  0  0
   31.4083    8.3200    3.7193 O   0  0  0  0  0  0  0  0  0  0  0  0
   30.7275    9.3115    5.7625 C   0  0  1  0  0  0  0  0  0  0  0  0
   29.7113   10.4138    6.1935 C   0  0  2  0  0  0  0  0  0  0  0  0
   28.9454   10.4522    5.0143 O   0  0  0  0  0  0  0  0  0  0  0  0
   30.2627   11.7370    6.7264 C   0  0  0  0  0  0  0  0  0  0  0  0
   30.9827   12.3247    5.6592 O   0  0  0  0  0  0  0  0  0  0  0  0
   29.8264    7.4770    7.1212 C   0  0  2  0  0  0  0  0  0  0  0  0
   30.1650    7.9271    5.8778 O   0  0  0  0  0  0  0  0  0  0  0  0
   29.4749    6.0184    7.1169 C   0  0  1  0  0  0  0  0  0  0  0  0
   27.3841   10.1708    9.9158 N   0  0  0  0  0  0  0  0  0  0  0  0
   37.2225   11.9971    0.6385 O   0  0  0  0  0  0  0  0  0  0  0  0
   29.0459    5.5793    8.5706 C   0  0  2  0  0  0  0  0  0  0  0  0
   27.8522    6.4126    9.1534 C   0  0  1  0  0  0  0  0  0  0  0  0
   28.2176    7.8098    9.1564 C   0  0  1  0  0  0  0  0  0  0  0  0
   28.6350    8.2574    7.7684 O   0  0  0  0  0  0  0  0  0  0  0  0
   27.0157    8.7000    9.7005 C   0  0  0  0  0  0  0  0  0  0  0  0
   28.3869    5.7866    6.2515 N   0  0  0  0  0  0  0  0  0  0  0  0
   25.4318    7.0539    0.1881 O   0  0  0  0  0  0  0  0  0  0  0  0
   36.0796   12.6201   -1.2231 C   0  0  0  0  0  0  0  0  0  0  0  0
   26.9422    6.2679    8.4688 O   0  0  0  0  0  0  0  0  0  0  0  0
   29.9407    5.7465    9.2739 O   0  0  0  0  0  0  0  0  0  0  0  0
   34.7932   11.4881    0.4093 C   0  0  0  0  0  0  0  0  0  0  0  0
   36.9555   13.6402   -1.5197 C   0  0  0  0  0  0  0  0  0  0  0  0
   36.0054   12.5120    0.1028 C   0  0  1  0  0  0  0  0  0  0  0  0
   23.7261    9.0906    0.3956 F   0  0  0  0  0  0  0  0  0  0  0  0
  1  2  1  6  0  0  0
  1 10  1  0  0  0  0
  1  3  1  0  0  0  0
  3  4  1  6  0  0  0
  3  6  1  0  0  0  0
  5 46  2  0  0  0  0
  6 42  1  1  0  0  0
  6  8  1  0  0  0  0
  7 47  1  0  0  0  0
  8  9  1  0  0  0  0
  8 49  1  1  0  0  0
  9 10  1  0  0  0  0
  9 11  1  1  0  0  0
 11 12  1  0  0  0  0
 13 14  1  6  0  0  0
 13 15  1  0  0  0  0
 13 21  1  0  0  0  0
 14 46  1  0  0  0  0
 15 16  1  0  0  0  0
 16 17  1  6  0  0  0
 16 18  1  0  0  0  0
 18  2  1  6  0  0  0
 18 19  1  0  0  0  0
 19 20  1  1  0  0  0
 19 21  1  0  0  0  0
 21 22  1  1  0  0  0
 23 20  1  6  0  0  0
 23 24  1  0  0  0  0
 23 28  1  0  0  0  0
 24 25  1  6  0  0  0
 24 26  1  0  0  0  0
 26 27  1  0  0  0  0
 26 32  1  6  0  0  0
 27 28  1  0  0  0  0
 27 29  1  6  0  0  0
 29 30  1  0  0  0  0
 31 32  1  6  0  0  0
 31 33  1  0  0  0  0
 31 39  1  0  0  0  0
 33 36  1  0  0  0  0
 33 41  1  6  0  0  0
 34 40  1  0  0  0  0
 35 48  1  0  0  0  0
 36 37  1  0  0  0  0
 36 45  1  1  0  0  0
 37 38  1  0  0  0  0
 37 44  1  6  0  0  0
 38 39  1  0  0  0  0
 38 40  1  6  0  0  0
 43 47  1  0  0  0  0
 46 48  1  0  0  0  0
 48 43  1  6  0  0  0
M  END
>  <CHROM.1>
-149.12099503,-163.85963217,-172.04885368,-159.03847290,139.04724543,50.30132806
177.88144166,63.41019557,-171.41233159,172.13241300,63.34777056,-69.94283867
1.15574796,29.73473098,9.80093319,2.96467800,2.17316473,0.24309195,1.92847503

>  <Name>
ligand

>  <RI>
0

>  <Rbt.Current_Directory>
/home/itssahil/PROJECTS/Mol_Feturizer/New_Systems/rnas/4PDQ

>  <Rbt.Executable>
rbdock ($Id: //depot/dev/client3/rdock/2013.1/src/exe/rbdock.cxx#4 $)

>  <Rbt.Library>
libRbt.so (2013.1, Build901 2013/11/27)

>  <Rbt.Parameter_File>
/export/apps/rDock/src/rDock_2013.1_src/data/scripts/dock_solv.prm

>  <Rbt.Receptor>
prm/pocket_docking_5.prm

>  <SCORE>
-16.8589

>  <SCORE.INTER>
-7.70726

>  <SCORE.INTER.CONST>
1

>  <SCORE.INTER.POLAR>
0

>  <SCORE.INTER.ROT>
13

>  <SCORE.INTER.SOLV>
24.0474

>  <SCORE.INTER.VDW>
-25.4206

>  <SCORE.INTER.norm>
-0.157291

>  <SCORE.INTRA>
-9.15159

>  <SCORE.INTRA.DIHEDRAL>
-21.0645

>  <SCORE.INTRA.DIHEDRAL.0>
34.5115

>  <SCORE.INTRA.POLAR>
0

>  <SCORE.INTRA.POLAR.0>
0

>  <SCORE.INTRA.REPUL>
0

>  <SCORE.INTRA.REPUL.0>
0

>  <SCORE.INTRA.SOLV>
-0.971344

>  <SCORE.INTRA.SOLV.lig_0>
-122.812

>  <SCORE.INTRA.VDW>
1.86634

>  <SCORE.INTRA.VDW.0>
-7.46208

>  <SCORE.INTRA.norm>
-0.186767

>  <SCORE.RESTR>
0

>  <SCORE.RESTR.CAVITY>
0

>  <SCORE.RESTR.norm>
0

>  <SCORE.SYSTEM>
0

>  <SCORE.SYSTEM.CONST>
0

>  <SCORE.SYSTEM.DIHEDRAL>
0

>  <SCORE.SYSTEM.SOLV>
0

>  <SCORE.SYSTEM.norm>
0

>  <SCORE.heavy>
49

>  <SCORE.norm>
-0.344058

>  <RMSD>
3.129

$$$$
ligand
 OpenBabel11021811513D
libRbt.so/2013.1/901 2013/11/27
 49 52  0  0  0  0  0  0  0  0999 V2000
   26.3121   10.0739   -1.0623 C   0  0  2  0  0  0  0  0  0  0  0  0
   26.7090   11.2018   -0.3396 O   0  0  0  0  0  0  0  0  0  0  0  0
   24.9814   10.3850   -1.8432 C   0  0  2  0  0  0  0  0  0  0  0  0
   25.2164   11.5592   -2.7804 N   0  0  0  0  0  0  0  0  0  0  0  0
   33.0264    9.6012   -0.3864 O   0  0  0  0  0  0  0  0  0  0  0  0
   23.8305   10.6757   -0.8519 C   0  0  2  0  0  0  0  0  0  0  0  0
   37.4656    9.9992    1.5078 N   0  0  0  0  0  0  0  0  0  0  0  0
   23.6254    9.4840    0.0965 C   0  0  2  0  0  0  0  0  0  0  0  0
   24.9491    9.1387    0.9017 C   0  0  2  0  0  0  0  0  0  0  0  0
   26.0690    8.9123   -0.1156 O   0  0  0  0  0  0  0  0  0  0  0  0
   24.7500    7.8970    1.8183 C   0  0  0  0  0  0  0  0  0  0  0  0
   25.9226    7.5045    2.5148 N   0  0  0  0  0  0  0  0  0  0  0  0
   30.8118   10.8607    1.0220 C   0  0  2  0  0  0  0  0  0  0  0  0
   32.2410   11.2205    1.2565 N   0  0  0  0  0  0  0  0  0  0  0  0
   30.4886   11.1979   -0.5136 C   0  0  0  0  0  0  0  0  0  0  0  0
   28.9983   10.8235   -0.8557 C   0  0  2  0  0  0  0  0  0  0  0  0
   28.6838   11.1467   -2.2552 N   0  0  0  0  0  0  0  0  0  0  0  0
   28.0290   11.6084    0.0506 C   0  0  2  0  0  0  0  0  0  0  0  0
   28.3238   11.3012    1.5743 C   0  0  2  0  0  0  0  0  0  0  0  0
   27.3462   12.0880    2.3519 O   0  0  0  0  0  0  0  0  0  0  0  0
   29.8340   11.7540    1.9145 C   0  0  1  0  0  0  0  0  0  0  0  0
   30.0711   11.4832    3.2599 O   0  0  0  0  0  0  0  0  0  0  0  0
   27.0206   11.9183    3.5880 C   0  0  1  0  0  0  0  0  0  0  0  0
   27.5562   10.6172    4.2549 C   0  0  2  0  0  0  0  0  0  0  0  0
   26.6003    9.6186    4.0851 O   0  0  0  0  0  0  0  0  0  0  0  0
   27.6065   11.0900    5.6484 C   0  0  1  0  0  0  0  0  0  0  0  0
   28.1018   12.5692    5.6422 C   0  0  2  0  0  0  0  0  0  0  0  0
   27.4269   13.0016    4.4863 O   0  0  0  0  0  0  0  0  0  0  0  0
   29.6068   12.8280    5.7254 C   0  0  0  0  0  0  0  0  0  0  0  0
   30.0461   12.2280    6.9294 O   0  0  0  0  0  0  0  0  0  0  0  0
   25.8847    9.7596    6.7837 C   0  0  2  0  0  0  0  0  0  0  0  0
   26.2187   10.9453    6.1954 O   0  0  0  0  0  0  0  0  0  0  0  0
   24.5724    9.8384    7.5068 C   0  0  1  0  0  0  0  0  0  0  0  0
   28.0727    8.4785   10.5939 N   0  0  0  0  0  0  0  0  0  0  0  0
   34.8095   12.4117    0.7710 O   0  0  0  0  0  0  0  0  0  0  0  0
   24.2748    8.4540    8.2031 C   0  0  2  0  0  0  0  0  0  0  0  0
   25.4004    7.9919    9.1921 C   0  0  1  0  0  0  0  0  0  0  0  0
   26.6498    7.9142    8.4719 C   0  0  1  0  0  0  0  0  0  0  0  0
   26.9592    9.2345    7.7921 O   0  0  0  0  0  0  0  0  0  0  0  0
   27.8322    7.4901    9.4492 C   0  0  0  0  0  0  0  0  0  0  0  0
   24.6321   10.8277    8.5089 N   0  0  0  0  0  0  0  0  0  0  0  0
   22.8681   10.8578   -1.4410 O   0  0  0  0  0  0  0  0  0  0  0  0
   35.0285   10.5376    2.0358 C   0  0  0  0  0  0  0  0  0  0  0  0
   25.4980    8.7791   10.0218 O   0  0  0  0  0  0  0  0  0  0  0  0
   24.2030    7.6494    7.3841 O   0  0  0  0  0  0  0  0  0  0  0  0
   33.2684   10.4783    0.4549 C   0  0  0  0  0  0  0  0  0  0  0  0
   36.3918   10.5914    2.2213 C   0  0  0  0  0  0  0  0  0  0  0  0
   34.7604   10.9871    0.8105 C   0  0  1  0  0  0  0  0  0  0  0  0
   23.2505    8.3456   -0.6388 F   0  0  0  0  0  0  0  0  0  0  0  0
  1  2  1  1  0  0  0
  1 10  1  0  0  0  0
  1  3  1  0  0  0  0
  3  4  1  6  0  0  0
  3  6  1  0  0  0  0
  5 46  2  0  0  0  0
  6 42  1  6  0  0  0
  6  8  1  0  0  0  0
  7 47  1  0  0  0  0
  8  9  1  0  0  0  0
  8 49  1  6  0  0  0
  9 10  1  0  0  0  0
  9 11  1  6  0  0  0
 11 12  1  0  0  0  0
 13 14  1  1  0  0  0
 13 15  1  0  0  0  0
 13 21  1  0  0  0  0
 14 46  1  0  0  0  0
 15 16  1  0  0  0  0
 16 17  1  6  0  0  0
 16 18  1  0  0  0  0
 18  2  1  6  0  0  0
 18 19  1  0  0  0  0
 19 20  1  1  0  0  0
 19 21  1  0  0  0  0
 21 22  1  1  0  0  0
 23 20  1  6  0  0  0
 23 24  1  0  0  0  0
 23 28  1  0  0  0  0
 24 25  1  1  0  0  0
 24 26  1  0  0  0  0
 26 27  1  0  0  0  0
 26 32  1  6  0  0  0
 27 28  1  0  0  0  0
 27 29  1  6  0  0  0
 29 30  1  0  0  0  0
 31 32  1  1  0  0  0
 31 33  1  0  0  0  0
 31 39  1  0  0  0  0
 33 36  1  0  0  0  0
 33 41  1  1  0  0  0
 34 40  1  0  0  0  0
 35 48  1  0  0  0  0
 36 37  1  0  0  0  0
 36 45  1  6  0  0  0
 37 38  1  0  0  0  0
 37 44  1  1  0  0  0
 38 39  1  0  0  0  0
 38 40  1  1  0  0  0
 43 47  1  0  0  0  0
 46 48  1  0  0  0  0
 48 43  1  1  0  0  0
M  END
>  <CHROM.1>
-151.77868792,18.12708032,177.16515193,-61.88064900,162.98435700,-9.98290350
89.20884243,-58.72058074,169.32894216,-61.16110611,-58.05884446,-78.33744527
130.30430352,27.97025248,10.30784294,3.10475121,0.88086141,-0.15271407,-1.45840303

>  <Name>
ligand

>  <RI>
0

>  <Rbt.Current_Directory>
/home/itssahil/PROJECTS/Mol_Feturizer/New_Systems/rnas/4PDQ

>  <Rbt.Executable>
rbdock ($Id: //depot/dev/client3/rdock/2013.1/src/exe/rbdock.cxx#4 $)

>  <Rbt.Library>
libRbt.so (2013.1, Build901 2013/11/27)

>  <Rbt.Parameter_File>
/export/apps/rDock/src/rDock_2013.1_src/data/scripts/dock_solv.prm

>  <Rbt.Receptor>
prm/pocket_docking_2.prm

>  <SCORE>
-0.811388

>  <SCORE.INTER>
-2.79204

>  <SCORE.INTER.CONST>
1

>  <SCORE.INTER.POLAR>
0

>  <SCORE.INTER.ROT>
13

>  <SCORE.INTER.SOLV>
25.2719

>  <SCORE.INTER.VDW>
-22.552

>  <SCORE.INTER.norm>
-0.0569805

>  <SCORE.INTRA>
0.147245

>  <SCORE.INTRA.DIHEDRAL>
-11.3771

>  <SCORE.INTRA.DIHEDRAL.0>
34.5115

>  <SCORE.INTRA.POLAR>
0

>  <SCORE.INTRA.POLAR.0>
0

>  <SCORE.INTRA.REPUL>
0

>  <SCORE.INTRA.REPUL.0>
0

>  <SCORE.INTRA.SOLV>
2.66587

>  <SCORE.INTRA.SOLV.lig_0>
-122.812

>  <SCORE.INTRA.VDW>
4.50287

>  <SCORE.INTRA.VDW.0>
-7.46208

>  <SCORE.INTRA.norm>
0.003005

>  <SCORE.RESTR>
1.83341

>  <SCORE.RESTR.CAVITY>
1.83341

>  <SCORE.RESTR.norm>
0.0374165

>  <SCORE.SYSTEM>
0

>  <SCORE.SYSTEM.CONST>
0

>  <SCORE.SYSTEM.DIHEDRAL>
0

>  <SCORE.SYSTEM.SOLV>
0

>  <SCORE.SYSTEM.norm>
0

>  <SCORE.heavy>
49

>  <SCORE.norm>
-0.0165589

>  <RMSD>
3.182

$$$$
ligand
 OpenBabel11021811513D
libRbt.so/2013.1/901 2013/11/27
 49 52  0  0  0  0  0  0  0  0999 V2000
   27.7150   10.0889    0.3812 C   0  0  2  0  0  0  0  0  0  0  0  0
   28.2891   11.3120    0.7368 O   0  0  0  0  0  0  0  0  0  0  0  0
   26.1622   10.1379    0.6337 C   0  0  2  0  0  0  0  0  0  0  0  0
   25.5588   11.2657   -0.1887 N   0  0  0  0  0  0  0  0  0  0  0  0
   34.4820    8.8930    0.5546 O   0  0  0  0  0  0  0  0  0  0  0  0
   25.8671   10.3184    2.1411 C   0  0  2  0  0  0  0  0  0  0  0  0
   39.5986    8.8592    0.6235 N   0  0  0  0  0  0  0  0  0  0  0  0
   26.5031    9.1789    2.9525 C   0  0  2  0  0  0  0  0  0  0  0  0
   28.0714    9.0967    2.7217 C   0  0  2  0  0  0  0  0  0  0  0  0
   28.3161    8.9730    1.2166 O   0  0  0  0  0  0  0  0  0  0  0  0
   28.7000    7.9064    3.5026 C   0  0  0  0  0  0  0  0  0  0  0  0
   28.7179    8.0895    4.9098 N   0  0  0  0  0  0  0  0  0  0  0  0
   32.4806   10.6947    1.6605 C   0  0  2  0  0  0  0  0  0  0  0  0
   33.9479   10.9556    1.7372 N   0  0  0  0  0  0  0  0  0  0  0  0
   32.0193   11.0439    0.1633 C   0  0  0  0  0  0  0  0  0  0  0  0
   30.4789   10.7719   -0.0138 C   0  0  2  0  0  0  0  0  0  0  0  0
   30.0398   11.1074   -1.3764 N   0  0  0  0  0  0  0  0  0  0  0  0
   29.6679   11.6281    0.9793 C   0  0  2  0  0  0  0  0  0  0  0  0
   30.1019   11.3109    2.4672 C   0  0  2  0  0  0  0  0  0  0  0  0
   29.2690   12.1687    3.3332 O   0  0  0  0  0  0  0  0  0  0  0  0
   31.6672   11.6596    2.6393 C   0  0  1  0  0  0  0  0  0  0  0  0
   32.0273   11.3815    3.9556 O   0  0  0  0  0  0  0  0  0  0  0  0
   28.4382   11.7822    4.2405 C   0  0  1  0  0  0  0  0  0  0  0  0
   28.7816   12.2113    5.6974 C   0  0  2  0  0  0  0  0  0  0  0  0
   29.5534   11.2056    6.2743 O   0  0  0  0  0  0  0  0  0  0  0  0
   27.4159   12.2313    6.2475 C   0  0  1  0  0  0  0  0  0  0  0  0
   26.4620   12.8134    5.1591 C   0  0  2  0  0  0  0  0  0  0  0  0
   27.0541   12.2143    4.0326 O   0  0  0  0  0  0  0  0  0  0  0  0
   26.2409   14.3263    5.1259 C   0  0  0  0  0  0  0  0  0  0  0  0
   27.5152   14.9087    4.9267 O   0  0  0  0  0  0  0  0  0  0  0  0
   25.9303   10.5877    7.3033 C   0  0  2  0  0  0  0  0  0  0  0  0
   27.0849   10.8157    6.6117 O   0  0  0  0  0  0  0  0  0  0  0  0
   26.1500   10.5986    8.7875 C   0  0  1  0  0  0  0  0  0  0  0  0
   23.1550    7.4513    5.6489 N   0  0  0  0  0  0  0  0  0  0  0  0
   36.6343   10.8931    2.5766 O   0  0  0  0  0  0  0  0  0  0  0  0
   24.7895   10.2789    9.5202 C   0  0  2  0  0  0  0  0  0  0  0  0
   24.1467    8.9157    9.0874 C   0  0  1  0  0  0  0  0  0  0  0  0
   23.9361    8.9331    7.6589 C   0  0  1  0  0  0  0  0  0  0  0  0
   25.2309    9.2391    6.9301 O   0  0  0  0  0  0  0  0  0  0  0  0
   23.3239    7.5484    7.1678 C   0  0  0  0  0  0  0  0  0  0  0  0
   27.0829    9.6043    9.1446 N   0  0  0  0  0  0  0  0  0  0  0  0
   24.7357   10.3100    2.3031 O   0  0  0  0  0  0  0  0  0  0  0  0
   37.1201    9.2517    1.0834 C   0  0  0  0  0  0  0  0  0  0  0  0
   24.8812    8.0720    9.3447 O   0  0  0  0  0  0  0  0  0  0  0  0
   24.0339   11.1024    9.2478 O   0  0  0  0  0  0  0  0  0  0  0  0
   34.8531    9.9296    1.1234 C   0  0  0  0  0  0  0  0  0  0  0  0
   38.4359    9.6194    0.9115 C   0  0  0  0  0  0  0  0  0  0  0  0
   36.4037   10.3587    1.2748 C   0  0  1  0  0  0  0  0  0  0  0  0
   25.9394    7.9479    2.5728 F   0  0  0  0  0  0  0  0  0  0  0  0
  1  2  1  1  0  0  0
  1 10  1  0  0  0  0
  1  3  1  0  0  0  0
  3  4  1  6  0  0  0
  3  6  1  0  0  0  0
  5 46  2  0  0  0  0
  6 42  1  6  0  0  0
  6  8  1  0  0  0  0
  7 47  1  0  0  0  0
  8  9  1  0  0  0  0
  8 49  1  6  0  0  0
  9 10  1  0  0  0  0
  9 11  1  1  0  0  0
 11 12  1  0  0  0  0
 13 14  1  6  0  0  0
 13 15  1  0  0  0  0
 13 21  1  0  0  0  0
 14 46  1  0  0  0  0
 15 16  1  0  0  0  0
 16 17  1  6  0  0  0
 16 18  1  0  0  0  0
 18  2  1  1  0  0  0
 18 19  1  0  0  0  0
 19 20  1  1  0  0  0
 19 21  1  0  0  0  0
 21 22  1  1  0  0  0
 23 20  1  6  0  0  0
 23 24  1  0  0  0  0
 23 28  1  0  0  0  0
 24 25  1  1  0  0  0
 24 26  1  0  0  0  0
 26 27  1  0  0  0  0
 26 32  1  6  0  0  0
 27 28  1  0  0  0  0
 27 29  1  6  0  0  0
 29 30  1  0  0  0  0
 31 32  1  6  0  0  0
 31 33  1  0  0  0  0
 31 39  1  0  0  0  0
 33 36  1  0  0  0  0
 33 41  1  6  0  0  0
 34 40  1  0  0  0  0
 35 48  1  0  0  0  0
 36 37  1  0  0  0  0
 36 45  1  6  0  0  0
 37 38  1  0  0  0  0
 37 44  1  6  0  0  0
 38 39  1  0  0  0  0
 38 40  1  6  0  0  0
 43 47  1  0  0  0  0
 46 48  1  0  0  0  0
 48 43  1  1  0  0  0
M  END
>  <CHROM.1>
163.65549904,35.60308349,-70.35935251,-76.98826729,119.40553654,116.71585637
171.84869051,59.35532903,-91.77386471,-176.22853103,-177.07321552,-73.60424129
-139.15411850,28.84839738,10.40050031,3.80678936,0.54118541,-0.00285243,-1.52840382

>  <Name>
ligand

>  <RI>
0

>  <Rbt.Current_Directory>
/home/itssahil/PROJECTS/Mol_Feturizer/New_Systems/rnas/4PDQ

>  <Rbt.Executable>
rbdock ($Id: //depot/dev/client3/rdock/2013.1/src/exe/rbdock.cxx#4 $)

>  <Rbt.Library>
libRbt.so (2013.1, Build901 2013/11/27)

>  <Rbt.Parameter_File>
/export/apps/rDock/src/rDock_2013.1_src/data/scripts/dock_solv.prm

>  <Rbt.Receptor>
prm/pocket_docking_3.prm

>  <SCORE>
0.183319

>  <SCORE.INTER>
3.1738

>  <SCORE.INTER.CONST>
1

>  <SCORE.INTER.POLAR>
0

>  <SCORE.INTER.ROT>
13

>  <SCORE.INTER.SOLV>
22.582

>  <SCORE.INTER.VDW>
-17.6781

>  <SCORE.INTER.norm>
0.0647714

>  <SCORE.INTRA>
-3.35995

>  <SCORE.INTRA.DIHEDRAL>
-9.63146

>  <SCORE.INTRA.DIHEDRAL.0>
34.5115

>  <SCORE.INTRA.POLAR>
0

>  <SCORE.INTRA.POLAR.0>
0

>  <SCORE.INTRA.REPUL>
0.135809

>  <SCORE.INTRA.REPUL.0>
0

>  <SCORE.INTRA.SOLV>
-0.52479

>  <SCORE.INTRA.SOLV.lig_0>
-122.812

>  <SCORE.INTRA.VDW>
1.03913

>  <SCORE.INTRA.VDW.0>
-7.46208

>  <SCORE.INTRA.norm>
-0.0685704

>  <SCORE.RESTR>
0.369471

>  <SCORE.RESTR.CAVITY>
0.369471

>  <SCORE.RESTR.norm>
0.00754021

>  <SCORE.SYSTEM>
0

>  <SCORE.SYSTEM.CONST>
0

>  <SCORE.SYSTEM.DIHEDRAL>
0

>  <SCORE.SYSTEM.SOLV>
0

>  <SCORE.SYSTEM.norm>
0

>  <SCORE.heavy>
49

>  <SCORE.norm>
0.0037412

>  <RMSD>
3.204

$$$$
ligand
 OpenBabel11021811513D
libRbt.so/2013.1/901 2013/11/27
 49 52  0  0  0  0  0  0  0  0999 V2000
   27.2547   11.4019    1.5795 C   0  0  2  0  0  0  0  0  0  0  0  0
   28.4014   11.0391    2.2905 O   0  0  0  0  0  0  0  0  0  0  0  0
   26.0366   11.5325    2.5676 C   0  0  2  0  0  0  0  0  0  0  0  0
   26.3600   12.5797    3.6218 N   0  0  0  0  0  0  0  0  0  0  0  0
   34.7963    8.4698    2.4787 O   0  0  0  0  0  0  0  0  0  0  0  0
   25.7163   10.1635    3.2118 C   0  0  2  0  0  0  0  0  0  0  0  0
   38.9946   10.9978    0.0547 N   0  0  0  0  0  0  0  0  0  0  0  0
   25.4126    9.1181    2.1271 C   0  0  2  0  0  0  0  0  0  0  0  0
   26.6198    8.9596    1.1087 C   0  0  2  0  0  0  0  0  0  0  0  0
   26.9350   10.3439    0.5388 O   0  0  0  0  0  0  0  0  0  0  0  0
   26.2835    7.9406   -0.0184 C   0  0  0  0  0  0  0  0  0  0  0  0
   25.9821    6.6380    0.4575 N   0  0  0  0  0  0  0  0  0  0  0  0
   32.5828   10.1347    1.5826 C   0  0  2  0  0  0  0  0  0  0  0  0
   33.9754   10.2774    1.0656 N   0  0  0  0  0  0  0  0  0  0  0  0
   31.5933   10.4278    0.3532 C   0  0  0  0  0  0  0  0  0  0  0  0
   30.0938   10.2740    0.8070 C   0  0  2  0  0  0  0  0  0  0  0  0
   29.1765   10.5598   -0.3060 N   0  0  0  0  0  0  0  0  0  0  0  0
   29.7802   11.2542    1.9550 C   0  0  2  0  0  0  0  0  0  0  0  0
   30.7426   10.9946    3.1835 C   0  0  2  0  0  0  0  0  0  0  0  0
   30.3594   11.9704    4.2229 O   0  0  0  0  0  0  0  0  0  0  0  0
   32.2670   11.2224    2.7087 C   0  0  1  0  0  0  0  0  0  0  0  0
   33.0967   10.9972    3.8044 O   0  0  0  0  0  0  0  0  0  0  0  0
   29.2780   11.9719    4.9254 C   0  0  1  0  0  0  0  0  0  0  0  0
   29.1830   10.8696    6.0211 C   0  0  2  0  0  0  0  0  0  0  0  0
   28.5666    9.7537    5.4603 O   0  0  0  0  0  0  0  0  0  0  0  0
   28.2899   11.5697    6.9593 C   0  0  1  0  0  0  0  0  0  0  0  0
   28.7005   13.0743    6.9903 C   0  0  2  0  0  0  0  0  0  0  0  0
   28.9994   13.2286    5.6246 O   0  0  0  0  0  0  0  0  0  0  0  0
   29.7581   13.5143    8.0036 C   0  0  0  0  0  0  0  0  0  0  0  0
   30.9831   12.9582    7.5645 O   0  0  0  0  0  0  0  0  0  0  0  0
   26.0080   10.7220    7.2721 C   0  0  2  0  0  0  0  0  0  0  0  0
   26.8949   11.3595    6.4533 O   0  0  0  0  0  0  0  0  0  0  0  0
   25.6673   11.5415    8.4818 C   0  0  1  0  0  0  0  0  0  0  0  0
   27.5235    7.2445    9.7857 N   0  0  0  0  0  0  0  0  0  0  0  0
   36.3202    9.7708   -0.4470 O   0  0  0  0  0  0  0  0  0  0  0  0
   24.6818   10.7259    9.4057 C   0  0  2  0  0  0  0  0  0  0  0  0
   25.2442    9.3310    9.8492 C   0  0  1  0  0  0  0  0  0  0  0  0
   25.5550    8.5580    8.6696 C   0  0  1  0  0  0  0  0  0  0  0  0
   26.5021    9.3213    7.7632 O   0  0  0  0  0  0  0  0  0  0  0  0
   26.1716    7.1473    9.0730 C   0  0  0  0  0  0  0  0  0  0  0  0
   26.8341   11.8166    9.2228 N   0  0  0  0  0  0  0  0  0  0  0  0
   24.8048   10.2757    3.8921 O   0  0  0  0  0  0  0  0  0  0  0  0
   36.9240   10.7313    1.5210 C   0  0  0  0  0  0  0  0  0  0  0  0
   26.2096    9.5036   10.4456 O   0  0  0  0  0  0  0  0  0  0  0  0
   23.7195   10.5206    8.8097 O   0  0  0  0  0  0  0  0  0  0  0  0
   35.0076    9.3469    1.6292 C   0  0  0  0  0  0  0  0  0  0  0  0
   38.2743   10.8037    1.2615 C   0  0  0  0  0  0  0  0  0  0  0  0
   36.4558    9.6151    0.9640 C   0  0  1  0  0  0  0  0  0  0  0  0
   24.2724    9.5010    1.3986 F   0  0  0  0  0  0  0  0  0  0  0  0
  1  2  1  1  0  0  0
  1 10  1  0  0  0  0
  1  3  1  0  0  0  0
  3  4  1  1  0  0  0
  3  6  1  0  0  0  0
  5 46  2  0  0  0  0
  6 42  1  1  0  0  0
  6  8  1  0  0  0  0
  7 47  1  0  0  0  0
  8  9  1  0  0  0  0
  8 49  1  6  0  0  0
  9 10  1  0  0  0  0
  9 11  1  6  0  0  0
 11 12  1  0  0  0  0
 13 14  1  6  0  0  0
 13 15  1  0  0  0  0
 13 21  1  0  0  0  0
 14 46  1  0  0  0  0
 15 16  1  0  0  0  0
 16 17  1  6  0  0  0
 16 18  1  0  0  0  0
 18  2  1  1  0  0  0
 18 19  1  0  0  0  0
 19 20  1  1  0  0  0
 19 21  1  0  0  0  0
 21 22  1  1  0  0  0
 23 20  1  1  0  0  0
 23 24  1  0  0  0  0
 23 28  1  0  0  0  0
 24 25  1  6  0  0  0
 24 26  1  0  0  0  0
 26 27  1  0  0  0  0
 26 32  1  6  0  0  0
 27 28  1  0  0  0  0
 27 29  1  1  0  0  0
 29 30  1  0  0  0  0
 31 32  1  1  0  0  0
 31 33  1  0  0  0  0
 31 39  1  0  0  0  0
 33 36  1  0  0  0  0
 33 41  1  1  0  0  0
 34 40  1  0  0  0  0
 35 48  1  0  0  0  0
 36 37  1  0  0  0  0
 36 45  1  6  0  0  0
 37 38  1  0  0  0  0
 37 44  1  6  0  0  0
 38 39  1  0  0  0  0
 38 40  1  1  0  0  0
 43 47  1  0  0  0  0
 46 48  1  0  0  0  0
 48 43  1  1  0  0  0
M  END
>  <CHROM.1>
-155.55031388,-72.87776794,-59.44598295,-144.36901380,70.48279793,72.38707094
119.85017256,69.97436741,67.50770865,-64.73254700,67.75374567,-76.38488324
134.70537127,29.13798848,10.45024471,4.21895989,0.60859939,-0.12889901,-1.72602599

>  <Name>
ligand

>  <RI>
0

>  <Rbt.Current_Directory>
/home/itssahil/PROJECTS/Mol_Feturizer/New_Systems/rnas/4PDQ

>  <Rbt.Executable>
rbdock ($Id: //depot/dev/client3/rdock/2013.1/src/exe/rbdock.cxx#4 $)

>  <Rbt.Library>
libRbt.so (2013.1, Build901 2013/11/27)

>  <Rbt.Parameter_File>
/export/apps/rDock/src/rDock_2013.1_src/data/scripts/dock_solv.prm

>  <Rbt.Receptor>
prm/pocket_docking_3.prm

>  <SCORE>
-2.60025

>  <SCORE.INTER>
1.04669

>  <SCORE.INTER.CONST>
1

>  <SCORE.INTER.POLAR>
0

>  <SCORE.INTER.ROT>
13

>  <SCORE.INTER.SOLV>
13.3634

>  <SCORE.INTER.VDW>
-16.0234

>  <SCORE.INTER.norm>
0.021361

>  <SCORE.INTRA>
-3.65893

>  <SCORE.INTRA.DIHEDRAL>
-18.9898

>  <SCORE.INTRA.DIHEDRAL.0>
34.5115

>  <SCORE.INTRA.POLAR>
0

>  <SCORE.INTRA.POLAR.0>
0

>  <SCORE.INTRA.REPUL>
0

>  <SCORE.INTRA.REPUL.0>
0

>  <SCORE.INTRA.SOLV>
8.2919

>  <SCORE.INTRA.SOLV.lig_0>
-122.812

>  <SCORE.INTRA.VDW>
1.69003

>  <SCORE.INTRA.VDW.0>
-7.46208

>  <SCORE.INTRA.norm>
-0.074672

>  <SCORE.RESTR>
0.0119893

>  <SCORE.RESTR.CAVITY>
0.0119893

>  <SCORE.RESTR.norm>
0.00024468

>  <SCORE.SYSTEM>
0

>  <SCORE.SYSTEM.CONST>
0

>  <SCORE.SYSTEM.DIHEDRAL>
0

>  <SCORE.SYSTEM.SOLV>
0

>  <SCORE.SYSTEM.norm>
0

>  <SCORE.heavy>
49

>  <SCORE.norm>
-0.0530663

>  <RMSD>
3.208

$$$$
ligand
 OpenBabel11021811513D
libRbt.so/2013.1/901 2013/11/27
 49 52  0  0  0  0  0  0  0  0999 V2000
   26.8616   10.5122   -1.0868 C   0  0  2  0  0  0  0  0  0  0  0  0
   27.5711   11.3998   -0.2740 O   0  0  0  0  0  0  0  0  0  0  0  0
   25.7065   11.2805   -1.8300 C   0  0  2  0  0  0  0  0  0  0  0  0
   26.3090   12.3987   -2.6662 N   0  0  0  0  0  0  0  0  0  0  0  0
   33.1767   11.6345    0.8928 O   0  0  0  0  0  0  0  0  0  0  0  0
   24.6808   11.8283   -0.8103 C   0  0  2  0  0  0  0  0  0  0  0  0
   38.0620    9.8465    1.5587 N   0  0  0  0  0  0  0  0  0  0  0  0
   24.1011   10.6835    0.0353 C   0  0  2  0  0  0  0  0  0  0  0  0
   25.2387    9.8828    0.7999 C   0  0  2  0  0  0  0  0  0  0  0  0
   26.2550    9.4077   -0.2402 O   0  0  0  0  0  0  0  0  0  0  0  0
   24.6499    8.6914    1.6095 C   0  0  0  0  0  0  0  0  0  0  0  0
   25.6345    7.8332    2.1647 N   0  0  0  0  0  0  0  0  0  0  0  0
   31.1982    9.5180    1.1772 C   0  0  2  0  0  0  0  0  0  0  0  0
   32.6357    9.3485    1.5406 N   0  0  0  0  0  0  0  0  0  0  0  0
   31.1585   10.1974   -0.2765 C   0  0  0  0  0  0  0  0  0  0  0  0
   29.6701   10.3914   -0.7511 C   0  0  2  0  0  0  0  0  0  0  0  0
   29.6200   11.0319   -2.0736 N   0  0  0  0  0  0  0  0  0  0  0  0
   28.9036   11.2828    0.2463 C   0  0  2  0  0  0  0  0  0  0  0  0
   28.9271   10.6427    1.6929 C   0  0  2  0  0  0  0  0  0  0  0  0
   28.1668   11.5604    2.5641 O   0  0  0  0  0  0  0  0  0  0  0  0
   30.4589   10.5154    2.1817 C   0  0  1  0  0  0  0  0  0  0  0  0
   30.4578    9.9581    3.4581 O   0  0  0  0  0  0  0  0  0  0  0  0
   27.6077   11.2763    3.6909 C   0  0  1  0  0  0  0  0  0  0  0  0
   28.1104    9.9765    4.3854 C   0  0  2  0  0  0  0  0  0  0  0  0
   27.3072    8.9206    3.9611 O   0  0  0  0  0  0  0  0  0  0  0  0
   27.8251   10.3494    5.7809 C   0  0  1  0  0  0  0  0  0  0  0  0
   28.1720   11.8596    5.9611 C   0  0  2  0  0  0  0  0  0  0  0  0
   27.7160   12.3202    4.7128 O   0  0  0  0  0  0  0  0  0  0  0  0
   29.5961   12.2295    6.3783 C   0  0  0  0  0  0  0  0  0  0  0  0
   29.7052   13.6310    6.2157 O   0  0  0  0  0  0  0  0  0  0  0  0
   26.0374    9.3035    7.0976 C   0  0  2  0  0  0  0  0  0  0  0  0
   26.3732   10.0566    6.0096 O   0  0  0  0  0  0  0  0  0  0  0  0
   24.5571    9.0786    7.1930 C   0  0  1  0  0  0  0  0  0  0  0  0
   28.2568   10.1211   10.9448 N   0  0  0  0  0  0  0  0  0  0  0  0
   35.3403    8.8261    1.5224 O   0  0  0  0  0  0  0  0  0  0  0  0
   24.2370    8.2480    8.4960 C   0  0  2  0  0  0  0  0  0  0  0  0
   24.7594    8.9181    9.8138 C   0  0  1  0  0  0  0  0  0  0  0  0
   26.1857    9.1151    9.7021 C   0  0  1  0  0  0  0  0  0  0  0  0
   26.5204    9.9119    8.4554 O   0  0  0  0  0  0  0  0  0  0  0  0
   26.7536    9.8348   11.0031 C   0  0  0  0  0  0  0  0  0  0  0  0
   23.8861   10.3144    7.2867 N   0  0  0  0  0  0  0  0  0  0  0  0
   23.8327   12.3455   -1.3757 O   0  0  0  0  0  0  0  0  0  0  0  0
   35.8382   10.9943    1.0635 C   0  0  0  0  0  0  0  0  0  0  0  0
   24.2505    9.9409    9.9255 O   0  0  0  0  0  0  0  0  0  0  0  0
   24.7654    7.2298    8.4104 O   0  0  0  0  0  0  0  0  0  0  0  0
   33.5328   10.5319    1.3325 C   0  0  0  0  0  0  0  0  0  0  0  0
   37.1143   10.9022    1.5723 C   0  0  0  0  0  0  0  0  0  0  0  0
   35.0485   10.1974    1.7823 C   0  0  1  0  0  0  0  0  0  0  0  0
   23.4096    9.7802   -0.7912 F   0  0  0  0  0  0  0  0  0  0  0  0
  1  2  1  1  0  0  0
  1 10  1  0  0  0  0
  1  3  1  0  0  0  0
  3  4  1  1  0  0  0
  3  6  1  0  0  0  0
  5 46  2  0  0  0  0
  6 42  1  6  0  0  0
  6  8  1  0  0  0  0
  7 47  1  0  0  0  0
  8  9  1  0  0  0  0
  8 49  1  6  0  0  0
  9 10  1  0  0  0  0
  9 11  1  6  0  0  0
 11 12  1  0  0  0  0
 13 14  1  1  0  0  0
 13 15  1  0  0  0  0
 13 21  1  0  0  0  0
 14 46  1  0  0  0  0
 15 16  1  0  0  0  0
 16 17  1  6  0  0  0
 16 18  1  0  0  0  0
 18  2  1  6  0  0  0
 18 19  1  0  0  0  0
 19 20  1  1  0  0  0
 19 21  1  0  0  0  0
 21 22  1  1  0  0  0
 23 20  1  6  0  0  0
 23 24  1  0  0  0  0
 23 28  1  0  0  0  0
 24 25  1  6  0  0  0
 24 26  1  0  0  0  0
 26 27  1  0  0  0  0
 26 32  1  6  0  0  0
 27 28  1  0  0  0  0
 27 29  1  6  0  0  0
 29 30  1  0  0  0  0
 31 32  1  6  0  0  0
 31 33  1  0  0  0  0
 31 39  1  0  0  0  0
 33 36  1  0  0  0  0
 33 41  1  1  0  0  0
 34 40  1  0  0  0  0
 35 48  1  0  0  0  0
 36 37  1  0  0  0  0
 36 45  1  6  0  0  0
 37 38  1  0  0  0  0
 37 44  1  6  0  0  0
 38 39  1  0  0  0  0
 38 40  1  1  0  0  0
 43 47  1  0  0  0  0
 46 48  1  0  0  0  0
 48 43  1  6  0  0  0
M  END
>  <CHROM.1>
-158.47902723,27.15253598,171.89060591,47.37123854,158.43874983,18.31478214
128.78209768,168.95528693,-179.40026669,-178.16351998,69.36098216,-70.48553388
-147.59926273,28.25156649,10.33297080,3.27476703,0.84891723,-0.02858996,-1.46286534

>  <Name>
ligand

>  <RI>
0

>  <Rbt.Current_Directory>
/home/itssahil/PROJECTS/Mol_Feturizer/New_Systems/rnas/4PDQ

>  <Rbt.Executable>
rbdock ($Id: //depot/dev/client3/rdock/2013.1/src/exe/rbdock.cxx#4 $)

>  <Rbt.Library>
libRbt.so (2013.1, Build901 2013/11/27)

>  <Rbt.Parameter_File>
/export/apps/rDock/src/rDock_2013.1_src/data/scripts/dock_solv.prm

>  <Rbt.Receptor>
prm/pocket_docking_2.prm

>  <SCORE>
5.58687

>  <SCORE.INTER>
1.8704

>  <SCORE.INTER.CONST>
1

>  <SCORE.INTER.POLAR>
0

>  <SCORE.INTER.ROT>
13

>  <SCORE.INTER.SOLV>
26.4321

>  <SCORE.INTER.VDW>
-19.8304

>  <SCORE.INTER.norm>
0.0381715

>  <SCORE.INTRA>
2.00071

>  <SCORE.INTRA.DIHEDRAL>
-10.711

>  <SCORE.INTRA.DIHEDRAL.0>
34.5115

>  <SCORE.INTRA.POLAR>
0

>  <SCORE.INTRA.POLAR.0>
0

>  <SCORE.INTRA.REPUL>
0

>  <SCORE.INTRA.REPUL.0>
0

>  <SCORE.INTRA.SOLV>
1.42966

>  <SCORE.INTRA.SOLV.lig_0>
-122.812

>  <SCORE.INTRA.VDW>
6.64139

>  <SCORE.INTRA.VDW.0>
-7.46208

>  <SCORE.INTRA.norm>
0.0408308

>  <SCORE.RESTR>
1.71576

>  <SCORE.RESTR.CAVITY>
1.71576

>  <SCORE.RESTR.norm>
0.0350156

>  <SCORE.SYSTEM>
0

>  <SCORE.SYSTEM.CONST>
0

>  <SCORE.SYSTEM.DIHEDRAL>
0

>  <SCORE.SYSTEM.SOLV>
0

>  <SCORE.SYSTEM.norm>
0

>  <SCORE.heavy>
49

>  <SCORE.norm>
0.114018

>  <RMSD>
3.215

$$$$
ligand
 OpenBabel11021811513D
libRbt.so/2013.1/901 2013/11/27
 49 52  0  0  0  0  0  0  0  0999 V2000
   27.1667    8.6471    0.1826 C   0  0  2  0  0  0  0  0  0  0  0  0
   27.9936    8.8995    1.2801 O   0  0  0  0  0  0  0  0  0  0  0  0
   26.5064    9.9902   -0.3046 C   0  0  2  0  0  0  0  0  0  0  0  0
   27.6014   10.9758   -0.6815 N   0  0  0  0  0  0  0  0  0  0  0  0
   34.5941    7.8915    1.7177 O   0  0  0  0  0  0  0  0  0  0  0  0
   25.5827   10.5659    0.7941 C   0  0  2  0  0  0  0  0  0  0  0  0
   36.7294    7.9912   -0.4896 N   0  0  0  0  0  0  0  0  0  0  0  0
   24.4977    9.5453    1.1719 C   0  0  2  0  0  0  0  0  0  0  0  0
   25.1266    8.1746    1.6673 C   0  0  2  0  0  0  0  0  0  0  0  0
   26.0710    7.6718    0.5738 O   0  0  0  0  0  0  0  0  0  0  0  0
   24.0229    7.1276    1.9950 C   0  0  0  0  0  0  0  0  0  0  0  0
   24.5286    5.8963    2.4872 N   0  0  0  0  0  0  0  0  0  0  0  0
   32.2083    9.5174    2.0908 C   0  0  2  0  0  0  0  0  0  0  0  0
   33.5818   10.0917    1.9873 N   0  0  0  0  0  0  0  0  0  0  0  0
   31.6977    9.2489    0.5929 C   0  0  0  0  0  0  0  0  0  0  0  0
   30.2564    8.6161    0.6096 C   0  0  2  0  0  0  0  0  0  0  0  0
   29.7690    8.3840   -0.7581 N   0  0  0  0  0  0  0  0  0  0  0  0
   29.2668    9.5604    1.3210 C   0  0  2  0  0  0  0  0  0  0  0  0
   29.7439    9.8495    2.8014 C   0  0  2  0  0  0  0  0  0  0  0  0
   28.7340   10.7490    3.3935 O   0  0  0  0  0  0  0  0  0  0  0  0
   31.1927   10.5566    2.7535 C   0  0  1  0  0  0  0  0  0  0  0  0
   31.5910   10.8097    4.0639 O   0  0  0  0  0  0  0  0  0  0  0  0
   28.2686   10.7094    4.5955 C   0  0  1  0  0  0  0  0  0  0  0  0
   27.4446    9.4391    4.9590 C   0  0  2  0  0  0  0  0  0  0  0  0
   26.1056    9.6957    4.6744 O   0  0  0  0  0  0  0  0  0  0  0  0
   27.6981    9.4213    6.4094 C   0  0  1  0  0  0  0  0  0  0  0  0
   29.1828    9.8362    6.6484 C   0  0  2  0  0  0  0  0  0  0  0  0
   29.2780   10.8233    5.6509 O   0  0  0  0  0  0  0  0  0  0  0  0
   30.2467    8.7378    6.6654 C   0  0  0  0  0  0  0  0  0  0  0  0
   30.2688    8.1874    5.3618 O   0  0  0  0  0  0  0  0  0  0  0  0
   26.5113   10.3023    8.3686 C   0  0  2  0  0  0  0  0  0  0  0  0
   26.7222   10.3796    7.0221 O   0  0  0  0  0  0  0  0  0  0  0  0
   27.1294   11.4551    9.1035 C   0  0  1  0  0  0  0  0  0  0  0  0
   26.9449    7.0705   12.4397 N   0  0  0  0  0  0  0  0  0  0  0  0
   36.2192   10.8823    2.7173 O   0  0  0  0  0  0  0  0  0  0  0  0
   26.8920   11.2753   10.6532 C   0  0  2  0  0  0  0  0  0  0  0  0
   27.4458    9.9231   11.2221 C   0  0  1  0  0  0  0  0  0  0  0  0
   26.8299    8.8301   10.5068 C   0  0  1  0  0  0  0  0  0  0  0  0
   27.0437    8.9798    9.0125 O   0  0  0  0  0  0  0  0  0  0  0  0
   27.3967    7.4353   11.0227 C   0  0  0  0  0  0  0  0  0  0  0  0
   28.5198   11.4836    8.8748 N   0  0  0  0  0  0  0  0  0  0  0  0
   25.0847   11.5169    0.4019 O   0  0  0  0  0  0  0  0  0  0  0  0
   37.0718    8.9672    1.8425 C   0  0  0  0  0  0  0  0  0  0  0  0
   28.5792    9.8928   11.0430 O   0  0  0  0  0  0  0  0  0  0  0  0
   25.7577   11.2749   10.8440 O   0  0  0  0  0  0  0  0  0  0  0  0
   34.7107    9.1225    1.8003 C   0  0  0  0  0  0  0  0  0  0  0  0
   37.4617    8.5498    0.5895 C   0  0  0  0  0  0  0  0  0  0  0  0
   36.1265    9.8942    1.6933 C   0  0  1  0  0  0  0  0  0  0  0  0
   23.6841    9.2763    0.0570 F   0  0  0  0  0  0  0  0  0  0  0  0
  1  2  1  1  0  0  0
  1 10  1  0  0  0  0
  1  3  1  0  0  0  0
  3  4  1  1  0  0  0
  3  6  1  0  0  0  0
  5 46  2  0  0  0  0
  6 42  1  6  0  0  0
  6  8  1  0  0  0  0
  7 47  1  0  0  0  0
  8  9  1  0  0  0  0
  8 49  1  6  0  0  0
  9 10  1  0  0  0  0
  9 11  1  6  0  0  0
 11 12  1  0  0  0  0
 13 14  1  6  0  0  0
 13 15  1  0  0  0  0
 13 21  1  0  0  0  0
 14 46  1  0  0  0  0
 15 16  1  0  0  0  0
 16 17  1  6  0  0  0
 16 18  1  0  0  0  0
 18  2  1  1  0  0  0
 18 19  1  0  0  0  0
 19 20  1  6  0  0  0
 19 21  1  0  0  0  0
 21 22  1  1  0  0  0
 23 20  1  6  0  0  0
 23 24  1  0  0  0  0
 23 28  1  0  0  0  0
 24 25  1  1  0  0  0
 24 26  1  0  0  0  0
 26 27  1  0  0  0  0
 26 32  1  1  0  0  0
 27 28  1  0  0  0  0
 27 29  1  6  0  0  0
 29 30  1  0  0  0  0
 31 32  1  6  0  0  0
 31 33  1  0  0  0  0
 31 39  1  0  0  0  0
 33 36  1  0  0  0  0
 33 41  1  1  0  0  0
 34 40  1  0  0  0  0
 35 48  1  0  0  0  0
 36 37  1  0  0  0  0
 36 45  1  6  0  0  0
 37 38  1  0  0  0  0
 37 44  1  6  0  0  0
 38 39  1  0  0  0  0
 38 40  1  1  0  0  0
 43 47  1  0  0  0  0
 46 48  1  0  0  0  0
 48 43  1  1  0  0  0
M  END
>  <CHROM.1>
-72.08633042,-69.10992971,-177.95052633,-82.08131534,140.21779307,-65.14310160
163.61625501,64.65588943,107.58013251,69.94602675,-57.28474436,-145.78919060
-135.00367767,29.00347628,9.47624585,4.15054239,0.91696054,-0.01622157,-1.63269117

>  <Name>
ligand

>  <RI>
0

>  <Rbt.Current_Directory>
/home/itssahil/PROJECTS/Mol_Feturizer/New_Systems/rnas/4PDQ

>  <Rbt.Executable>
rbdock ($Id: //depot/dev/client3/rdock/2013.1/src/exe/rbdock.cxx#4 $)

>  <Rbt.Library>
libRbt.so (2013.1, Build901 2013/11/27)

>  <Rbt.Parameter_File>
/export/apps/rDock/src/rDock_2013.1_src/data/scripts/dock_solv.prm

>  <Rbt.Receptor>
prm/pocket_docking_4.prm

>  <SCORE>
-1.92424

>  <SCORE.INTER>
1.83517

>  <SCORE.INTER.CONST>
1

>  <SCORE.INTER.POLAR>
0

>  <SCORE.INTER.ROT>
13

>  <SCORE.INTER.SOLV>
15.6428

>  <SCORE.INTER.VDW>
-16.2575

>  <SCORE.INTER.norm>
0.0374524

>  <SCORE.INTRA>
-3.75941

>  <SCORE.INTRA.DIHEDRAL>
-15.207

>  <SCORE.INTRA.DIHEDRAL.0>
34.5115

>  <SCORE.INTRA.POLAR>
0

>  <SCORE.INTRA.POLAR.0>
0

>  <SCORE.INTRA.REPUL>
0

>  <SCORE.INTRA.REPUL.0>
0

>  <SCORE.INTRA.SOLV>
5.05331

>  <SCORE.INTRA.SOLV.lig_0>
-122.812

>  <SCORE.INTRA.VDW>
1.31744

>  <SCORE.INTRA.VDW.0>
-7.46208

>  <SCORE.INTRA.norm>
-0.0767226

>  <SCORE.RESTR>
0

>  <SCORE.RESTR.CAVITY>
0

>  <SCORE.RESTR.norm>
0

>  <SCORE.SYSTEM>
0

>  <SCORE.SYSTEM.CONST>
0

>  <SCORE.SYSTEM.DIHEDRAL>
0

>  <SCORE.SYSTEM.SOLV>
0

>  <SCORE.SYSTEM.norm>
0

>  <SCORE.heavy>
49

>  <SCORE.norm>
-0.0392703

>  <RMSD>
3.218

$$$$
ligand
 OpenBabel11021811513D
libRbt.so/2013.1/901 2013/11/27
 49 52  0  0  0  0  0  0  0  0999 V2000
   27.2940    8.8187    3.2022 C   0  0  2  0  0  0  0  0  0  0  0  0
   28.4006    8.2091    2.6058 O   0  0  0  0  0  0  0  0  0  0  0  0
   26.1097    7.7870    3.3030 C   0  0  2  0  0  0  0  0  0  0  0  0
   26.5609    6.5888    4.1235 N   0  0  0  0  0  0  0  0  0  0  0  0
   33.1720   11.0263    0.9846 O   0  0  0  0  0  0  0  0  0  0  0  0
   25.6447    7.3611    1.8909 C   0  0  2  0  0  0  0  0  0  0  0  0
   38.5154    9.7884    0.8519 N   0  0  0  0  0  0  0  0  0  0  0  0
   25.2130    8.5897    1.0749 C   0  0  2  0  0  0  0  0  0  0  0  0
   26.3830    9.6554    0.9529 C   0  0  2  0  0  0  0  0  0  0  0  0
   26.8454   10.0055    2.3685 O   0  0  0  0  0  0  0  0  0  0  0  0
   25.9213   10.9206    0.1732 C   0  0  0  0  0  0  0  0  0  0  0  0
   25.3667   10.6376   -1.1021 N   0  0  0  0  0  0  0  0  0  0  0  0
   32.7206    8.5230    2.4004 C   0  0  2  0  0  0  0  0  0  0  0  0
   34.0690    8.9763    1.9495 N   0  0  0  0  0  0  0  0  0  0  0  0
   31.8625    8.2159    1.0791 C   0  0  0  0  0  0  0  0  0  0  0  0
   30.4243    7.7051    1.4653 C   0  0  2  0  0  0  0  0  0  0  0  0
   29.6211    7.4394    0.2627 N   0  0  0  0  0  0  0  0  0  0  0  0
   29.6907    8.7648    2.3114 C   0  0  2  0  0  0  0  0  0  0  0  0
   30.5136    9.0942    3.6218 C   0  0  2  0  0  0  0  0  0  0  0  0
   29.7298   10.1043    4.3599 O   0  0  0  0  0  0  0  0  0  0  0  0
   31.9569    9.6765    3.1984 C   0  0  1  0  0  0  0  0  0  0  0  0
   32.6618    9.9673    4.3638 O   0  0  0  0  0  0  0  0  0  0  0  0
   29.5008   10.1342    5.6285 C   0  0  1  0  0  0  0  0  0  0  0  0
   30.7564   10.0335    6.5439 C   0  0  2  0  0  0  0  0  0  0  0  0
   30.9774    8.6882    6.8290 O   0  0  0  0  0  0  0  0  0  0  0  0
   30.2331   10.7580    7.7140 C   0  0  1  0  0  0  0  0  0  0  0  0
   29.3788   11.9580    7.2005 C   0  0  2  0  0  0  0  0  0  0  0  0
   28.7824   11.3217    6.0970 O   0  0  0  0  0  0  0  0  0  0  0  0
   30.0821   13.2939    6.9561 C   0  0  0  0  0  0  0  0  0  0  0  0
   30.9170   13.1020    5.8298 O   0  0  0  0  0  0  0  0  0  0  0  0
   28.8185   10.2037    9.6415 C   0  0  2  0  0  0  0  0  0  0  0  0
   29.4285    9.7680    8.5007 O   0  0  0  0  0  0  0  0  0  0  0  0
   28.2103    9.0759   10.4221 C   0  0  1  0  0  0  0  0  0  0  0  0
   26.4732   14.0725    9.4290 N   0  0  0  0  0  0  0  0  0  0  0  0
   35.7086   11.9370    0.2127 O   0  0  0  0  0  0  0  0  0  0  0  0
   27.4810    9.6550   11.6960 C   0  0  2  0  0  0  0  0  0  0  0  0
   26.3831   10.7234   11.3615 C   0  0  1  0  0  0  0  0  0  0  0  0
   26.9936   11.8017   10.6198 C   0  0  1  0  0  0  0  0  0  0  0  0
   27.7028   11.2707    9.3885 O   0  0  0  0  0  0  0  0  0  0  0  0
   25.9044   12.8910   10.2199 C   0  0  0  0  0  0  0  0  0  0  0  0
   27.2511    8.4067    9.6358 N   0  0  0  0  0  0  0  0  0  0  0  0
   24.7594    6.6450    1.9900 O   0  0  0  0  0  0  0  0  0  0  0  0
   36.3679   10.6250    1.9459 C   0  0  0  0  0  0  0  0  0  0  0  0
   25.5835   10.2265   10.7048 O   0  0  0  0  0  0  0  0  0  0  0  0
   28.2670   10.1817   12.3502 O   0  0  0  0  0  0  0  0  0  0  0  0
   34.1380   10.2891    1.2279 C   0  0  0  0  0  0  0  0  0  0  0  0
   37.7031   10.6686    1.6124 C   0  0  0  0  0  0  0  0  0  0  0  0
   35.6596   10.6465    0.8175 C   0  0  1  0  0  0  0  0  0  0  0  0
   24.1149    9.2136    1.6932 F   0  0  0  0  0  0  0  0  0  0  0  0
  1  2  1  6  0  0  0
  1 10  1  0  0  0  0
  1  3  1  0  0  0  0
  3  4  1  1  0  0  0
  3  6  1  0  0  0  0
  5 46  2  0  0  0  0
  6 42  1  1  0  0  0
  6  8  1  0  0  0  0
  7 47  1  0  0  0  0
  8  9  1  0  0  0  0
  8 49  1  1  0  0  0
  9 10  1  0  0  0  0
  9 11  1  1  0  0  0
 11 12  1  0  0  0  0
 13 14  1  6  0  0  0
 13 15  1  0  0  0  0
 13 21  1  0  0  0  0
 14 46  1  0  0  0  0
 15 16  1  0  0  0  0
 16 17  1  6  0  0  0
 16 18  1  0  0  0  0
 18  2  1  1  0  0  0
 18 19  1  0  0  0  0
 19 20  1  1  0  0  0
 19 21  1  0  0  0  0
 21 22  1  1  0  0  0
 23 20  1  6  0  0  0
 23 24  1  0  0  0  0
 23 28  1  0  0  0  0
 24 25  1  1  0  0  0
 24 26  1  0  0  0  0
 26 27  1  0  0  0  0
 26 32  1  6  0  0  0
 27 28  1  0  0  0  0
 27 29  1  6  0  0  0
 29 30  1  0  0  0  0
 31 32  1  6  0  0  0
 31 33  1  0  0  0  0
 31 39  1  0  0  0  0
 33 36  1  0  0  0  0
 33 41  1  6  0  0  0
 34 40  1  0  0  0  0
 35 48  1  0  0  0  0
 36 37  1  0  0  0  0
 36 45  1  1  0  0  0
 37 38  1  0  0  0  0
 37 44  1  6  0  0  0
 38 39  1  0  0  0  0
 38 40  1  6  0  0  0
 43 47  1  0  0  0  0
 46 48  1  0  0  0  0
 48 43  1  1  0  0  0
M  END
>  <CHROM.1>
179.84769040,-171.50542717,-53.98484329,66.76048182,136.77829908,52.34779506
-179.34638745,69.39074102,-172.14310135,179.95469325,-60.85565205,-71.97921135
2.88489892,29.47852186,9.92209735,4.73169078,2.22779758,0.17845335,1.33939114

>  <Name>
ligand

>  <RI>
0

>  <Rbt.Current_Directory>
/home/itssahil/PROJECTS/Mol_Feturizer/New_Systems/rnas/4PDQ

>  <Rbt.Executable>
rbdock ($Id: //depot/dev/client3/rdock/2013.1/src/exe/rbdock.cxx#4 $)

>  <Rbt.Library>
libRbt.so (2013.1, Build901 2013/11/27)

>  <Rbt.Parameter_File>
/export/apps/rDock/src/rDock_2013.1_src/data/scripts/dock_solv.prm

>  <Rbt.Receptor>
prm/pocket_docking_4.prm

>  <SCORE>
-11.2986

>  <SCORE.INTER>
-0.101761

>  <SCORE.INTER.CONST>
1

>  <SCORE.INTER.POLAR>
0

>  <SCORE.INTER.ROT>
13

>  <SCORE.INTER.SOLV>
10.8843

>  <SCORE.INTER.VDW>
-15.9626

>  <SCORE.INTER.norm>
-0.00207675

>  <SCORE.INTRA>
-11.1968

>  <SCORE.INTRA.DIHEDRAL>
-25.8169

>  <SCORE.INTRA.DIHEDRAL.0>
34.5115

>  <SCORE.INTRA.POLAR>
0

>  <SCORE.INTRA.POLAR.0>
0

>  <SCORE.INTRA.REPUL>
0

>  <SCORE.INTRA.REPUL.0>
0

>  <SCORE.INTRA.SOLV>
-1.63667

>  <SCORE.INTRA.SOLV.lig_0>
-122.812

>  <SCORE.INTRA.VDW>
2.52992

>  <SCORE.INTRA.VDW.0>
-7.46208

>  <SCORE.INTRA.norm>
-0.228507

>  <SCORE.RESTR>
0

>  <SCORE.RESTR.CAVITY>
0

>  <SCORE.RESTR.norm>
0

>  <SCORE.SYSTEM>
0

>  <SCORE.SYSTEM.CONST>
0

>  <SCORE.SYSTEM.DIHEDRAL>
0

>  <SCORE.SYSTEM.SOLV>
0

>  <SCORE.SYSTEM.norm>
0

>  <SCORE.heavy>
49

>  <SCORE.norm>
-0.230584

>  <RMSD>
3.227

$$$$
ligand
 OpenBabel11021811513D
libRbt.so/2013.1/901 2013/11/27
 49 52  0  0  0  0  0  0  0  0999 V2000
   27.5159   10.8641   -0.9060 C   0  0  2  0  0  0  0  0  0  0  0  0
   28.3662   11.7266   -0.2094 O   0  0  0  0  0  0  0  0  0  0  0  0
   26.2430   11.6518   -1.3923 C   0  0  2  0  0  0  0  0  0  0  0  0
   26.6799   12.8016   -2.2864 N   0  0  0  0  0  0  0  0  0  0  0  0
   33.8093   11.5913    1.7258 O   0  0  0  0  0  0  0  0  0  0  0  0
   25.4271   12.1582   -0.1800 C   0  0  2  0  0  0  0  0  0  0  0  0
   39.0031   10.8322    1.0153 N   0  0  0  0  0  0  0  0  0  0  0  0
   25.0144   10.9815    0.7182 C   0  0  2  0  0  0  0  0  0  0  0  0
   26.2739   10.1606    1.2276 C   0  0  2  0  0  0  0  0  0  0  0  0
   27.0770    9.7275   -0.0003 O   0  0  0  0  0  0  0  0  0  0  0  0
   25.8456    8.9385    2.0906 C   0  0  0  0  0  0  0  0  0  0  0  0
   26.9117    8.0556    2.4033 N   0  0  0  0  0  0  0  0  0  0  0  0
   31.8775    9.5192    1.0557 C   0  0  2  0  0  0  0  0  0  0  0  0
   33.3049    9.2321    1.3831 N   0  0  0  0  0  0  0  0  0  0  0  0
   31.8650   10.2937   -0.3502 C   0  0  0  0  0  0  0  0  0  0  0  0
   30.3870   10.6159   -0.7860 C   0  0  2  0  0  0  0  0  0  0  0  0
   30.3632   11.3436   -2.0634 N   0  0  0  0  0  0  0  0  0  0  0  0
   29.6943   11.4884    0.2797 C   0  0  2  0  0  0  0  0  0  0  0  0
   29.6932   10.7545    1.6812 C   0  0  2  0  0  0  0  0  0  0  0  0
   29.0068   11.6611    2.6227 O   0  0  0  0  0  0  0  0  0  0  0  0
   31.2190   10.4950    2.1349 C   0  0  1  0  0  0  0  0  0  0  0  0
   31.1968    9.8564    3.3724 O   0  0  0  0  0  0  0  0  0  0  0  0
   28.3109   11.3261    3.6553 C   0  0  1  0  0  0  0  0  0  0  0  0
   29.0155   10.3715    4.6636 C   0  0  2  0  0  0  0  0  0  0  0  0
   28.7172    9.0606    4.2996 O   0  0  0  0  0  0  0  0  0  0  0  0
   28.2970   10.7733    5.8844 C   0  0  1  0  0  0  0  0  0  0  0  0
   28.0922   12.3192    5.8413 C   0  0  2  0  0  0  0  0  0  0  0  0
   27.8310   12.4483    4.4652 O   0  0  0  0  0  0  0  0  0  0  0  0
   29.1791   13.2096    6.4451 C   0  0  0  0  0  0  0  0  0  0  0  0
   29.3250   12.7990    7.7915 O   0  0  0  0  0  0  0  0  0  0  0  0
   26.4476    9.7004    7.0894 C   0  0  2  0  0  0  0  0  0  0  0  0
   27.0033   10.0166    5.8833 O   0  0  0  0  0  0  0  0  0  0  0  0
   25.0307    9.2266    6.9510 C   0  0  1  0  0  0  0  0  0  0  0  0
   25.9101   11.5302   11.9207 N   0  0  0  0  0  0  0  0  0  0  0  0
   35.7781    8.5156    1.9679 O   0  0  0  0  0  0  0  0  0  0  0  0
   24.4364    8.9289    8.3821 C   0  0  2  0  0  0  0  0  0  0  0  0
   24.4941   10.1570    9.3555 C   0  0  1  0  0  0  0  0  0  0  0  0
   25.8667   10.5881    9.4801 C   0  0  1  0  0  0  0  0  0  0  0  0
   26.4623   10.8807    8.1160 O   0  0  0  0  0  0  0  0  0  0  0  0
   25.9676   11.8633   10.4271 C   0  0  0  0  0  0  0  0  0  0  0  0
   24.2430   10.2291    6.3504 N   0  0  0  0  0  0  0  0  0  0  0  0
   24.4888   12.6902   -0.5581 O   0  0  0  0  0  0  0  0  0  0  0  0
   36.4750   10.5146    1.1445 C   0  0  0  0  0  0  0  0  0  0  0  0
   23.8766   11.0098    8.8983 O   0  0  0  0  0  0  0  0  0  0  0  0
   25.0646    8.0946    8.8643 O   0  0  0  0  0  0  0  0  0  0  0  0
   34.1780   10.4084    1.7037 C   0  0  0  0  0  0  0  0  0  0  0  0
   37.7789   10.3685    1.5623 C   0  0  0  0  0  0  0  0  0  0  0  0
   35.6847    9.9362    2.0478 C   0  0  1  0  0  0  0  0  0  0  0  0
   24.1792   10.1039    0.0043 F   0  0  0  0  0  0  0  0  0  0  0  0
  1  2  1  1  0  0  0
  1 10  1  0  0  0  0
  1  3  1  0  0  0  0
  3  4  1  6  0  0  0
  3  6  1  0  0  0  0
  5 46  2  0  0  0  0
  6 42  1  6  0  0  0
  6  8  1  0  0  0  0
  7 47  1  0  0  0  0
  8  9  1  0  0  0  0
  8 49  1  6  0  0  0
  9 10  1  0  0  0  0
  9 11  1  6  0  0  0
 11 12  1  0  0  0  0
 13 14  1  1  0  0  0
 13 15  1  0  0  0  0
 13 21  1  0  0  0  0
 14 46  1  0  0  0  0
 15 16  1  0  0  0  0
 16 17  1  6  0  0  0
 16 18  1  0  0  0  0
 18  2  1  6  0  0  0
 18 19  1  0  0  0  0
 19 20  1  1  0  0  0
 19 21  1  0  0  0  0
 21 22  1  1  0  0  0
 23 20  1  6  0  0  0
 23 24  1  0  0  0  0
 23 28  1  0  0  0  0
 24 25  1  6  0  0  0
 24 26  1  0  0  0  0
 26 27  1  0  0  0  0
 26 32  1  6  0  0  0
 27 28  1  0  0  0  0
 27 29  1  6  0  0  0
 29 30  1  0  0  0  0
 31 32  1  6  0  0  0
 31 33  1  0  0  0  0
 31 39  1  0  0  0  0
 33 36  1  0  0  0  0
 33 41  1  1  0  0  0
 34 40  1  0  0  0  0
 35 48  1  0  0  0  0
 36 37  1  0  0  0  0
 36 45  1  1  0  0  0
 37 38  1  0  0  0  0
 37 44  1  6  0  0  0
 38 39  1  0  0  0  0
 38 40  1  1  0  0  0
 43 47  1  0  0  0  0
 46 48  1  0  0  0  0
 48 43  1  6  0  0  0
M  END
>  <CHROM.1>
-172.31155016,37.34081561,170.94731794,68.01829910,149.66428570,52.80015958
150.20189192,-57.08070658,167.23385993,79.37025388,-177.22779948,-72.92308754
178.46967682,28.71515069,10.65040364,3.40070546,0.72615029,0.04520985,-1.52172569

>  <Name>
ligand

>  <RI>
0

>  <Rbt.Current_Directory>
/home/itssahil/PROJECTS/Mol_Feturizer/New_Systems/rnas/4PDQ

>  <Rbt.Executable>
rbdock ($Id: //depot/dev/client3/rdock/2013.1/src/exe/rbdock.cxx#4 $)

>  <Rbt.Library>
libRbt.so (2013.1, Build901 2013/11/27)

>  <Rbt.Parameter_File>
/export/apps/rDock/src/rDock_2013.1_src/data/scripts/dock_solv.prm

>  <Rbt.Receptor>
prm/pocket_docking_3.prm

>  <SCORE>
-6.50957

>  <SCORE.INTER>
-0.154086

>  <SCORE.INTER.CONST>
1

>  <SCORE.INTER.POLAR>
0

>  <SCORE.INTER.ROT>
13

>  <SCORE.INTER.SOLV>
23.4275

>  <SCORE.INTER.VDW>
-20.1786

>  <SCORE.INTER.norm>
-0.00314462

>  <SCORE.INTRA>
-6.3652

>  <SCORE.INTRA.DIHEDRAL>
-19.0105

>  <SCORE.INTRA.DIHEDRAL.0>
34.5115

>  <SCORE.INTRA.POLAR>
0

>  <SCORE.INTRA.POLAR.0>
0

>  <SCORE.INTRA.REPUL>
0

>  <SCORE.INTRA.REPUL.0>
0

>  <SCORE.INTRA.SOLV>
0.793226

>  <SCORE.INTRA.SOLV.lig_0>
-122.812

>  <SCORE.INTRA.VDW>
2.74344

>  <SCORE.INTRA.VDW.0>
-7.46208

>  <SCORE.INTRA.norm>
-0.129902

>  <SCORE.RESTR>
0.00970968

>  <SCORE.RESTR.CAVITY>
0.00970968

>  <SCORE.RESTR.norm>
0.000198157

>  <SCORE.SYSTEM>
0

>  <SCORE.SYSTEM.CONST>
0

>  <SCORE.SYSTEM.DIHEDRAL>
0

>  <SCORE.SYSTEM.SOLV>
0

>  <SCORE.SYSTEM.norm>
0

>  <SCORE.heavy>
49

>  <SCORE.norm>
-0.132848

>  <RMSD>
3.258

$$$$
ligand
 OpenBabel11021811513D
libRbt.so/2013.1/901 2013/11/27
 49 52  0  0  0  0  0  0  0  0999 V2000
   27.4057    9.5998   -0.0113 C   0  0  2  0  0  0  0  0  0  0  0  0
   28.1109    9.9558    1.1412 O   0  0  0  0  0  0  0  0  0  0  0  0
   26.6857   10.8668   -0.6057 C   0  0  2  0  0  0  0  0  0  0  0  0
   27.7273   11.9267   -0.9280 N   0  0  0  0  0  0  0  0  0  0  0  0
   34.6122    9.3365    0.7466 O   0  0  0  0  0  0  0  0  0  0  0  0
   25.6266   11.4000    0.3873 C   0  0  2  0  0  0  0  0  0  0  0  0
   34.6959   12.2232   -1.1450 N   0  0  0  0  0  0  0  0  0  0  0  0
   24.5975   10.3060    0.7127 C   0  0  2  0  0  0  0  0  0  0  0  0
   25.2879    9.0092    1.3137 C   0  0  2  0  0  0  0  0  0  0  0  0
   26.3612    8.5506    0.3249 O   0  0  0  0  0  0  0  0  0  0  0  0
   24.2467    7.8858    1.5887 C   0  0  0  0  0  0  0  0  0  0  0  0
   24.8192    6.6773    2.0638 N   0  0  0  0  0  0  0  0  0  0  0  0
   32.3109   10.5952    2.0092 C   0  0  2  0  0  0  0  0  0  0  0  0
   33.6665   11.2181    1.9726 N   0  0  0  0  0  0  0  0  0  0  0  0
   31.7988   10.4956    0.4912 C   0  0  0  0  0  0  0  0  0  0  0  0
   30.3766    9.8230    0.4349 C   0  0  2  0  0  0  0  0  0  0  0  0
   29.8876    9.7445   -0.9495 N   0  0  0  0  0  0  0  0  0  0  0  0
   29.3646   10.6443    1.2585 C   0  0  2  0  0  0  0  0  0  0  0  0
   29.8424   10.7654    2.7618 C   0  0  2  0  0  0  0  0  0  0  0  0
   28.8107   11.5560    3.4617 O   0  0  0  0  0  0  0  0  0  0  0  0
   31.2698   11.5156    2.7963 C   0  0  1  0  0  0  0  0  0  0  0  0
   31.6689   11.6193    4.1266 O   0  0  0  0  0  0  0  0  0  0  0  0
   28.3976   11.3945    4.6726 C   0  0  1  0  0  0  0  0  0  0  0  0
   27.8413    9.9807    5.0135 C   0  0  2  0  0  0  0  0  0  0  0  0
   26.4700    9.9848    4.7700 O   0  0  0  0  0  0  0  0  0  0  0  0
   28.1371    9.9708    6.4558 C   0  0  1  0  0  0  0  0  0  0  0  0
   29.5223   10.6547    6.6727 C   0  0  2  0  0  0  0  0  0  0  0  0
   29.3982   11.6694    5.7065 O   0  0  0  0  0  0  0  0  0  0  0  0
   30.7756    9.7795    6.6274 C   0  0  0  0  0  0  0  0  0  0  0  0
   30.9364    9.3871    5.2772 O   0  0  0  0  0  0  0  0  0  0  0  0
   26.0571    9.9719    7.7585 C   0  0  2  0  0  0  0  0  0  0  0  0
   27.0157   10.7077    7.1235 O   0  0  0  0  0  0  0  0  0  0  0  0
   25.0192   10.8386    8.4088 C   0  0  1  0  0  0  0  0  0  0  0  0
   27.4055    6.3011   10.0314 N   0  0  0  0  0  0  0  0  0  0  0  0
   37.0301   10.6609    2.2752 O   0  0  0  0  0  0  0  0  0  0  0  0
   23.9756    9.9276    9.1644 C   0  0  2  0  0  0  0  0  0  0  0  0
   24.6239    8.9809   10.2331 C   0  0  1  0  0  0  0  0  0  0  0  0
   25.6108    8.1513    9.5825 C   0  0  1  0  0  0  0  0  0  0  0  0
   26.6273    9.0043    8.8475 O   0  0  0  0  0  0  0  0  0  0  0  0
   26.3275    7.2023   10.6403 C   0  0  0  0  0  0  0  0  0  0  0  0
   25.6246   11.6881    9.3566 N   0  0  0  0  0  0  0  0  0  0  0  0
   25.0906   12.2931   -0.0832 O   0  0  0  0  0  0  0  0  0  0  0  0
   36.6614   11.1666    0.0916 C   0  0  0  0  0  0  0  0  0  0  0  0
   25.1464    9.6307   11.0220 O   0  0  0  0  0  0  0  0  0  0  0  0
   23.4642    9.2496    8.3885 O   0  0  0  0  0  0  0  0  0  0  0  0
   34.7520   10.4426    1.2876 C   0  0  0  0  0  0  0  0  0  0  0  0
   36.0366   12.1082   -0.6953 C   0  0  0  0  0  0  0  0  0  0  0  0
   36.1512   11.2505    1.3196 C   0  0  1  0  0  0  0  0  0  0  0  0
   23.9084    9.9340   -0.4552 F   0  0  0  0  0  0  0  0  0  0  0  0
  1  2  1  1  0  0  0
  1 10  1  0  0  0  0
  1  3  1  0  0  0  0
  3  4  1  1  0  0  0
  3  6  1  0  0  0  0
  5 46  2  0  0  0  0
  6 42  1  6  0  0  0
  6  8  1  0  0  0  0
  7 47  1  0  0  0  0
  8  9  1  0  0  0  0
  8 49  1  6  0  0  0
  9 10  1  0  0  0  0
  9 11  1  6  0  0  0
 11 12  1  0  0  0  0
 13 14  1  6  0  0  0
 13 15  1  0  0  0  0
 13 21  1  0  0  0  0
 14 46  1  0  0  0  0
 15 16  1  0  0  0  0
 16 17  1  6  0  0  0
 16 18  1  0  0  0  0
 18  2  1  1  0  0  0
 18 19  1  0  0  0  0
 19 20  1  1  0  0  0
 19 21  1  0  0  0  0
 21 22  1  1  0  0  0
 23 20  1  6  0  0  0
 23 24  1  0  0  0  0
 23 28  1  0  0  0  0
 24 25  1  1  0  0  0
 24 26  1  0  0  0  0
 26 27  1  0  0  0  0
 26 32  1  1  0  0  0
 27 28  1  0  0  0  0
 27 29  1  6  0  0  0
 29 30  1  0  0  0  0
 31 32  1  1  0  0  0
 31 33  1  0  0  0  0
 31 39  1  0  0  0  0
 33 36  1  0  0  0  0
 33 41  1  1  0  0  0
 34 40  1  0  0  0  0
 35 48  1  0  0  0  0
 36 37  1  0  0  0  0
 36 45  1  6  0  0  0
 37 38  1  0  0  0  0
 37 44  1  1  0  0  0
 38 39  1  0  0  0  0
 38 40  1  1  0  0  0
 43 47  1  0  0  0  0
 46 48  1  0  0  0  0
 48 43  1  6  0  0  0
M  END
>  <CHROM.1>
-76.67820618,-55.94128396,176.96026174,-64.61262307,143.62726420,-56.81369859
102.67304087,70.26745999,178.56465540,-179.19247472,-66.67953558,-160.02233167
-75.60129606,28.68596398,10.16208681,3.74353458,0.78031429,-0.11818772,-1.47617008

>  <Name>
ligand

>  <RI>
0

>  <Rbt.Current_Directory>
/home/itssahil/PROJECTS/Mol_Feturizer/New_Systems/rnas/4PDQ

>  <Rbt.Executable>
rbdock ($Id: //depot/dev/client3/rdock/2013.1/src/exe/rbdock.cxx#4 $)

>  <Rbt.Library>
libRbt.so (2013.1, Build901 2013/11/27)

>  <Rbt.Parameter_File>
/export/apps/rDock/src/rDock_2013.1_src/data/scripts/dock_solv.prm

>  <Rbt.Receptor>
prm/pocket_docking_3.prm

>  <SCORE>
-5.27882

>  <SCORE.INTER>
-0.877347

>  <SCORE.INTER.CONST>
1

>  <SCORE.INTER.POLAR>
0

>  <SCORE.INTER.ROT>
13

>  <SCORE.INTER.SOLV>
18.7654

>  <SCORE.INTER.VDW>
-19.1067

>  <SCORE.INTER.norm>
-0.017905

>  <SCORE.INTRA>
-4.42915

>  <SCORE.INTRA.DIHEDRAL>
-18.3539

>  <SCORE.INTRA.DIHEDRAL.0>
34.5115

>  <SCORE.INTRA.POLAR>
0

>  <SCORE.INTRA.POLAR.0>
0

>  <SCORE.INTRA.REPUL>
0

>  <SCORE.INTRA.REPUL.0>
0

>  <SCORE.INTRA.SOLV>
4.38791

>  <SCORE.INTRA.SOLV.lig_0>
-122.812

>  <SCORE.INTRA.VDW>
2.55385

>  <SCORE.INTRA.VDW.0>
-7.46208

>  <SCORE.INTRA.norm>
-0.0903908

>  <SCORE.RESTR>
0.0276762

>  <SCORE.RESTR.CAVITY>
0.0276762

>  <SCORE.RESTR.norm>
0.000564821

>  <SCORE.SYSTEM>
0

>  <SCORE.SYSTEM.CONST>
0

>  <SCORE.SYSTEM.DIHEDRAL>
0

>  <SCORE.SYSTEM.SOLV>
0

>  <SCORE.SYSTEM.norm>
0

>  <SCORE.heavy>
49

>  <SCORE.norm>
-0.107731

>  <RMSD>
3.273

$$$$
ligand
 OpenBabel11021811513D
libRbt.so/2013.1/901 2013/11/27
 49 52  0  0  0  0  0  0  0  0999 V2000
   27.4407    8.3478    0.6383 C   0  0  2  0  0  0  0  0  0  0  0  0
   28.5149    8.7128    1.4537 O   0  0  0  0  0  0  0  0  0  0  0  0
   26.6805    9.6376    0.1527 C   0  0  2  0  0  0  0  0  0  0  0  0
   27.6476   10.5279   -0.6118 N   0  0  0  0  0  0  0  0  0  0  0  0
   35.0751   10.1532    2.6831 O   0  0  0  0  0  0  0  0  0  0  0  0
   26.0597   10.3827    1.3574 C   0  0  2  0  0  0  0  0  0  0  0  0
   36.6547   14.0658   -1.4561 N   0  0  0  0  0  0  0  0  0  0  0  0
   25.1025    9.4575    2.1251 C   0  0  2  0  0  0  0  0  0  0  0  0
   25.8342    8.1425    2.6300 C   0  0  2  0  0  0  0  0  0  0  0  0
   26.4764    7.4697    1.4154 O   0  0  0  0  0  0  0  0  0  0  0  0
   24.8464    7.1853    3.3577 C   0  0  0  0  0  0  0  0  0  0  0  0
   24.3673    7.6883    4.5953 N   0  0  0  0  0  0  0  0  0  0  0  0
   32.7075    9.7394    1.0405 C   0  0  2  0  0  0  0  0  0  0  0  0
   33.9354   10.4292    0.5470 N   0  0  0  0  0  0  0  0  0  0  0  0
   31.8302    9.3623   -0.2497 C   0  0  0  0  0  0  0  0  0  0  0  0
   30.5192    8.6044    0.1806 C   0  0  2  0  0  0  0  0  0  0  0  0
   29.6967    8.2712   -0.9918 N   0  0  0  0  0  0  0  0  0  0  0  0
   29.6784    9.4862    1.1254 C   0  0  2  0  0  0  0  0  0  0  0  0
   30.5168    9.8800    2.4079 C   0  0  2  0  0  0  0  0  0  0  0  0
   29.6279   10.7101    3.2447 O   0  0  0  0  0  0  0  0  0  0  0  0
   31.8191   10.7111    1.9445 C   0  0  1  0  0  0  0  0  0  0  0  0
   32.5385   11.0547    3.0864 O   0  0  0  0  0  0  0  0  0  0  0  0
   29.3703   10.5512    4.4982 C   0  0  1  0  0  0  0  0  0  0  0  0
   30.5781   10.7328    5.4640 C   0  0  2  0  0  0  0  0  0  0  0  0
   31.1778    9.4889    5.6458 O   0  0  0  0  0  0  0  0  0  0  0  0
   29.8377   11.1594    6.6631 C   0  0  1  0  0  0  0  0  0  0  0  0
   28.6810   12.1029    6.2099 C   0  0  2  0  0  0  0  0  0  0  0  0
   28.3240   11.4288    5.0281 O   0  0  0  0  0  0  0  0  0  0  0  0
   28.9664   13.6023    6.1145 C   0  0  0  0  0  0  0  0  0  0  0  0
   29.3323   14.0196    7.4163 O   0  0  0  0  0  0  0  0  0  0  0  0
   28.7660   10.0211    8.5550 C   0  0  2  0  0  0  0  0  0  0  0  0
   29.3411    9.9083    7.3221 O   0  0  0  0  0  0  0  0  0  0  0  0
   28.3964    8.6853    9.1295 C   0  0  1  0  0  0  0  0  0  0  0  0
   24.4851   11.5497    8.8012 N   0  0  0  0  0  0  0  0  0  0  0  0
   37.2968   10.3646    0.4112 O   0  0  0  0  0  0  0  0  0  0  0  0
   27.6930    8.8933   10.5267 C   0  0  2  0  0  0  0  0  0  0  0  0
   26.4255    9.8141   10.4625 C   0  0  1  0  0  0  0  0  0  0  0  0
   26.8079   11.0951    9.9163 C   0  0  1  0  0  0  0  0  0  0  0  0
   27.4876   10.9226    8.5712 O   0  0  0  0  0  0  0  0  0  0  0  0
   25.5405   12.0498    9.7916 C   0  0  0  0  0  0  0  0  0  0  0  0
   27.4876    8.0277    8.2764 N   0  0  0  0  0  0  0  0  0  0  0  0
   25.4802   11.2909    0.9758 O   0  0  0  0  0  0  0  0  0  0  0  0
   35.8407   11.9936   -0.2104 C   0  0  0  0  0  0  0  0  0  0  0  0
   25.6587    9.3252    9.7620 O   0  0  0  0  0  0  0  0  0  0  0  0
   28.4417    9.4094   11.2312 O   0  0  0  0  0  0  0  0  0  0  0  0
   35.0716   10.5689    1.5157 C   0  0  0  0  0  0  0  0  0  0  0  0
   36.7228   13.0060   -0.5153 C   0  0  0  0  0  0  0  0  0  0  0  0
   36.3275   11.3220    0.8324 C   0  0  1  0  0  0  0  0  0  0  0  0
   24.0368    9.0733    1.2920 F   0  0  0  0  0  0  0  0  0  0  0  0
  1  2  1  1  0  0  0
  1 10  1  0  0  0  0
  1  3  1  0  0  0  0
  3  4  1  1  0  0  0
  3  6  1  0  0  0  0
  5 46  2  0  0  0  0
  6 42  1  6  0  0  0
  6  8  1  0  0  0  0
  7 47  1  0  0  0  0
  8  9  1  0  0  0  0
  8 49  1  6  0  0  0
  9 10  1  0  0  0  0
  9 11  1  6  0  0  0
 11 12  1  0  0  0  0
 13 14  1  6  0  0  0
 13 15  1  0  0  0  0
 13 21  1  0  0  0  0
 14 46  1  0  0  0  0
 15 16  1  0  0  0  0
 16 17  1  6  0  0  0
 16 18  1  0  0  0  0
 18  2  1  1  0  0  0
 18 19  1  0  0  0  0
 19 20  1  1  0  0  0
 19 21  1  0  0  0  0
 21 22  1  1  0  0  0
 23 20  1  6  0  0  0
 23 24  1  0  0  0  0
 23 28  1  0  0  0  0
 24 25  1  1  0  0  0
 24 26  1  0  0  0  0
 26 27  1  0  0  0  0
 26 32  1  6  0  0  0
 27 28  1  0  0  0  0
 27 29  1  6  0  0  0
 29 30  1  0  0  0  0
 31 32  1  6  0  0  0
 31 33  1  0  0  0  0
 31 39  1  0  0  0  0
 33 36  1  0  0  0  0
 33 41  1  6  0  0  0
 34 40  1  0  0  0  0
 35 48  1  0  0  0  0
 36 37  1  0  0  0  0
 36 45  1  1  0  0  0
 37 38  1  0  0  0  0
 37 44  1  6  0  0  0
 38 39  1  0  0  0  0
 38 40  1  6  0  0  0
 43 47  1  0  0  0  0
 46 48  1  0  0  0  0
 48 43  1  6  0  0  0
M  END
>  <CHROM.1>
-62.85662138,-69.56131539,-67.94997776,-164.79550478,129.03930876,64.38983881
171.74015769,-60.77742259,-176.36620488,-64.47978202,-174.75018069,-82.41167876
79.94350830,29.37802341,10.21521950,3.98139675,0.77643317,-0.27666055,-1.72373965

>  <Name>
ligand

>  <RI>
0

>  <Rbt.Current_Directory>
/home/itssahil/PROJECTS/Mol_Feturizer/New_Systems/rnas/4PDQ

>  <Rbt.Executable>
rbdock ($Id: //depot/dev/client3/rdock/2013.1/src/exe/rbdock.cxx#4 $)

>  <Rbt.Library>
libRbt.so (2013.1, Build901 2013/11/27)

>  <Rbt.Parameter_File>
/export/apps/rDock/src/rDock_2013.1_src/data/scripts/dock_solv.prm

>  <Rbt.Receptor>
prm/pocket_docking_3.prm

>  <SCORE>
-2.21451

>  <SCORE.INTER>
4.13529

>  <SCORE.INTER.CONST>
1

>  <SCORE.INTER.POLAR>
0

>  <SCORE.INTER.ROT>
13

>  <SCORE.INTER.SOLV>
19.8681

>  <SCORE.INTER.VDW>
-16.1325

>  <SCORE.INTER.norm>
0.0843937

>  <SCORE.INTRA>
-6.5

>  <SCORE.INTRA.DIHEDRAL>
-22.4626

>  <SCORE.INTRA.DIHEDRAL.0>
34.5115

>  <SCORE.INTRA.POLAR>
0

>  <SCORE.INTRA.POLAR.0>
0

>  <SCORE.INTRA.REPUL>
0

>  <SCORE.INTRA.REPUL.0>
0

>  <SCORE.INTRA.SOLV>
1.73047

>  <SCORE.INTRA.SOLV.lig_0>
-122.812

>  <SCORE.INTRA.VDW>
3.86608

>  <SCORE.INTRA.VDW.0>
-7.46208

>  <SCORE.INTRA.norm>
-0.132653

>  <SCORE.RESTR>
0.150191

>  <SCORE.RESTR.CAVITY>
0.150191

>  <SCORE.RESTR.norm>
0.00306511

>  <SCORE.SYSTEM>
0

>  <SCORE.SYSTEM.CONST>
0

>  <SCORE.SYSTEM.DIHEDRAL>
0

>  <SCORE.SYSTEM.SOLV>
0

>  <SCORE.SYSTEM.norm>
0

>  <SCORE.heavy>
49

>  <SCORE.norm>
-0.0451942

>  <RMSD>
3.363

$$$$
ligand
 OpenBabel11021811513D
libRbt.so/2013.1/901 2013/11/27
 49 52  0  0  0  0  0  0  0  0999 V2000
   27.3868   11.4550    2.3383 C   0  0  2  0  0  0  0  0  0  0  0  0
   28.6315   11.0130    2.7935 O   0  0  0  0  0  0  0  0  0  0  0  0
   26.3183   11.3037    3.4841 C   0  0  2  0  0  0  0  0  0  0  0  0
   26.7614   12.1179    4.6895 N   0  0  0  0  0  0  0  0  0  0  0  0
   33.5884   10.1763   -1.4157 O   0  0  0  0  0  0  0  0  0  0  0  0
   26.1273    9.8131    3.8492 C   0  0  2  0  0  0  0  0  0  0  0  0
   38.0680   13.2232   -0.5700 N   0  0  0  0  0  0  0  0  0  0  0  0
   25.6994    9.0082    2.6121 C   0  0  2  0  0  0  0  0  0  0  0  0
   26.7535    9.1381    1.4324 C   0  0  2  0  0  0  0  0  0  0  0  0
   26.9494   10.6275    1.1430 O   0  0  0  0  0  0  0  0  0  0  0  0
   26.2866    8.3662    0.1644 C   0  0  0  0  0  0  0  0  0  0  0  0
   26.2146    6.9602    0.3431 N   0  0  0  0  0  0  0  0  0  0  0  0
   32.6881   10.8445    1.2709 C   0  0  2  0  0  0  0  0  0  0  0  0
   33.9888   11.3080    0.7049 N   0  0  0  0  0  0  0  0  0  0  0  0
   31.5265   11.5508    0.4176 C   0  0  0  0  0  0  0  0  0  0  0  0
   30.1112   11.0953    0.9350 C   0  0  2  0  0  0  0  0  0  0  0  0
   29.0379   11.7515    0.1740 N   0  0  0  0  0  0  0  0  0  0  0  0
   29.9428   11.4634    2.4227 C   0  0  2  0  0  0  0  0  0  0  0  0
   31.0768   10.7854    3.2929 C   0  0  2  0  0  0  0  0  0  0  0  0
   30.8241   11.1900    4.6900 O   0  0  0  0  0  0  0  0  0  0  0  0
   32.5120   11.3185    2.7857 C   0  0  1  0  0  0  0  0  0  0  0  0
   33.4949   10.7172    3.5681 O   0  0  0  0  0  0  0  0  0  0  0  0
   30.1867   10.5204    5.5890 C   0  0  1  0  0  0  0  0  0  0  0  0
   30.8320   10.5082    7.0060 C   0  0  2  0  0  0  0  0  0  0  0  0
   31.6790    9.4055    7.0865 O   0  0  0  0  0  0  0  0  0  0  0  0
   29.6088   10.3131    7.8021 C   0  0  1  0  0  0  0  0  0  0  0  0
   28.4679   11.1575    7.1550 C   0  0  2  0  0  0  0  0  0  0  0  0
   28.8011   10.9435    5.8053 O   0  0  0  0  0  0  0  0  0  0  0  0
   28.2842   12.6024    7.6214 C   0  0  0  0  0  0  0  0  0  0  0  0
   27.9631   12.5366    8.9980 O   0  0  0  0  0  0  0  0  0  0  0  0
   28.3656    8.3682    8.6361 C   0  0  2  0  0  0  0  0  0  0  0  0
   29.3224    8.8420    7.7855 O   0  0  0  0  0  0  0  0  0  0  0  0
   28.3265    6.8686    8.6623 C   0  0  1  0  0  0  0  0  0  0  0  0
   23.9197    8.5224    7.4290 N   0  0  0  0  0  0  0  0  0  0  0  0
   36.0502   10.9962   -2.4777 O   0  0  0  0  0  0  0  0  0  0  0  0
   27.1687    6.3921    9.6228 C   0  0  2  0  0  0  0  0  0  0  0  0
   25.7574    6.9545    9.2346 C   0  0  1  0  0  0  0  0  0  0  0  0
   25.8176    8.3973    9.2257 C   0  0  1  0  0  0  0  0  0  0  0  0
   26.9246    8.8817    8.3087 O   0  0  0  0  0  0  0  0  0  0  0  0
   24.4147    9.0120    8.7929 C   0  0  0  0  0  0  0  0  0  0  0  0
   28.0569    6.3701    7.3719 N   0  0  0  0  0  0  0  0  0  0  0  0
   25.3191    9.7266    4.6527 O   0  0  0  0  0  0  0  0  0  0  0  0
   35.6224   12.7929   -1.1553 C   0  0  0  0  0  0  0  0  0  0  0  0
   25.4998    6.5866    8.1782 O   0  0  0  0  0  0  0  0  0  0  0  0
   27.3995    6.7789   10.6812 O   0  0  0  0  0  0  0  0  0  0  0  0
   34.3131   10.8763   -0.6942 C   0  0  0  0  0  0  0  0  0  0  0  0
   36.8759   13.3353   -1.3310 C   0  0  0  0  0  0  0  0  0  0  0  0
   35.7414   11.4659   -1.1672 C   0  0  1  0  0  0  0  0  0  0  0  0
   24.4580    9.4739    2.1435 F   0  0  0  0  0  0  0  0  0  0  0  0
  1  2  1  1  0  0  0
  1 10  1  0  0  0  0
  1  3  1  0  0  0  0
  3  4  1  1  0  0  0
  3  6  1  0  0  0  0
  5 46  2  0  0  0  0
  6 42  1  1  0  0  0
  6  8  1  0  0  0  0
  7 47  1  0  0  0  0
  8  9  1  0  0  0  0
  8 49  1  6  0  0  0
  9 10  1  0  0  0  0
  9 11  1  6  0  0  0
 11 12  1  0  0  0  0
 13 14  1  6  0  0  0
 13 15  1  0  0  0  0
 13 21  1  0  0  0  0
 14 46  1  0  0  0  0
 15 16  1  0  0  0  0
 16 17  1  6  0  0  0
 16 18  1  0  0  0  0
 18  2  1  1  0  0  0
 18 19  1  0  0  0  0
 19 20  1  1  0  0  0
 19 21  1  0  0  0  0
 21 22  1  1  0  0  0
 23 20  1  6  0  0  0
 23 24  1  0  0  0  0
 23 28  1  0  0  0  0
 24 25  1  6  0  0  0
 24 26  1  0  0  0  0
 26 27  1  0  0  0  0
 26 32  1  6  0  0  0
 27 28  1  0  0  0  0
 27 29  1  1  0  0  0
 29 30  1  0  0  0  0
 31 32  1  6  0  0  0
 31 33  1  0  0  0  0
 31 39  1  0  0  0  0
 33 36  1  0  0  0  0
 33 41  1  6  0  0  0
 34 40  1  0  0  0  0
 35 48  1  0  0  0  0
 36 37  1  0  0  0  0
 36 45  1  1  0  0  0
 37 38  1  0  0  0  0
 37 44  1  6  0  0  0
 38 39  1  0  0  0  0
 38 40  1  6  0  0  0
 43 47  1  0  0  0  0
 46 48  1  0  0  0  0
 48 43  1  6  0  0  0
M  END
>  <CHROM.1>
-148.92509244,-65.08797076,-65.27310267,-66.11264888,96.21195216,137.10070554
169.23125558,-62.15548550,-171.46406340,-56.80919621,-59.98502718,-70.62370618
-3.28697816,29.33727442,10.07086000,4.13861484,0.82397944,-0.24099185,-1.42150514

>  <Name>
ligand

>  <RI>
0

>  <Rbt.Current_Directory>
/home/itssahil/PROJECTS/Mol_Feturizer/New_Systems/rnas/4PDQ

>  <Rbt.Executable>
rbdock ($Id: //depot/dev/client3/rdock/2013.1/src/exe/rbdock.cxx#4 $)

>  <Rbt.Library>
libRbt.so (2013.1, Build901 2013/11/27)

>  <Rbt.Parameter_File>
/export/apps/rDock/src/rDock_2013.1_src/data/scripts/dock_solv.prm

>  <Rbt.Receptor>
prm/pocket_docking_4.prm

>  <SCORE>
-3.16386

>  <SCORE.INTER>
-0.695561

>  <SCORE.INTER.CONST>
1

>  <SCORE.INTER.POLAR>
0

>  <SCORE.INTER.ROT>
13

>  <SCORE.INTER.SOLV>
14.3949

>  <SCORE.INTER.VDW>
-17.5287

>  <SCORE.INTER.norm>
-0.0141951

>  <SCORE.INTRA>
-2.4683

>  <SCORE.INTRA.DIHEDRAL>
-17.6455

>  <SCORE.INTRA.DIHEDRAL.0>
34.5115

>  <SCORE.INTRA.POLAR>
0

>  <SCORE.INTRA.POLAR.0>
0

>  <SCORE.INTRA.REPUL>
0.304043

>  <SCORE.INTRA.REPUL.0>
0

>  <SCORE.INTRA.SOLV>
4.3661

>  <SCORE.INTRA.SOLV.lig_0>
-122.812

>  <SCORE.INTRA.VDW>
2.6512

>  <SCORE.INTRA.VDW.0>
-7.46208

>  <SCORE.INTRA.norm>
-0.0503734

>  <SCORE.RESTR>
0

>  <SCORE.RESTR.CAVITY>
0

>  <SCORE.RESTR.norm>
0

>  <SCORE.SYSTEM>
0

>  <SCORE.SYSTEM.CONST>
0

>  <SCORE.SYSTEM.DIHEDRAL>
0

>  <SCORE.SYSTEM.SOLV>
0

>  <SCORE.SYSTEM.norm>
0

>  <SCORE.heavy>
49

>  <SCORE.norm>
-0.0645685

>  <RMSD>
3.376

$$$$
ligand
 OpenBabel11021811513D
libRbt.so/2013.1/901 2013/11/27
 49 52  0  0  0  0  0  0  0  0999 V2000
   27.4518    8.9195    0.1651 C   0  0  2  0  0  0  0  0  0  0  0  0
   28.4815    9.3080    1.0257 O   0  0  0  0  0  0  0  0  0  0  0  0
   26.7830   10.1940   -0.4718 C   0  0  2  0  0  0  0  0  0  0  0  0
   27.8379   10.9841   -1.2303 N   0  0  0  0  0  0  0  0  0  0  0  0
   33.1260   12.1267   -0.8947 O   0  0  0  0  0  0  0  0  0  0  0  0
   26.1125   11.0551    0.6241 C   0  0  2  0  0  0  0  0  0  0  0  0
   38.8278   12.0443    0.8519 N   0  0  0  0  0  0  0  0  0  0  0  0
   25.0657   10.2301    1.3890 C   0  0  2  0  0  0  0  0  0  0  0  0
   25.7038    8.9331    2.0450 C   0  0  2  0  0  0  0  0  0  0  0  0
   26.3994    8.1424    0.9353 O   0  0  0  0  0  0  0  0  0  0  0  0
   24.6279    8.0742    2.7705 C   0  0  0  0  0  0  0  0  0  0  0  0
   25.1468    6.9060    3.3869 N   0  0  0  0  0  0  0  0  0  0  0  0
   32.7674    9.9666    1.0236 C   0  0  2  0  0  0  0  0  0  0  0  0
   34.1067   10.4511    0.5779 N   0  0  0  0  0  0  0  0  0  0  0  0
   32.0370    9.3524   -0.2671 C   0  0  0  0  0  0  0  0  0  0  0  0
   30.6179    8.7919    0.1204 C   0  0  2  0  0  0  0  0  0  0  0  0
   29.9300    8.2444   -1.0582 N   0  0  0  0  0  0  0  0  0  0  0  0
   29.7431    9.9156    0.7112 C   0  0  2  0  0  0  0  0  0  0  0  0
   30.4376   10.5466    1.9850 C   0  0  2  0  0  0  0  0  0  0  0  0
   29.5249   11.5979    2.4760 O   0  0  0  0  0  0  0  0  0  0  0  0
   31.8591   11.1709    1.5481 C   0  0  1  0  0  0  0  0  0  0  0  0
   32.4501   11.7275    2.6797 O   0  0  0  0  0  0  0  0  0  0  0  0
   28.3953   11.4279    3.0743 C   0  0  1  0  0  0  0  0  0  0  0  0
   28.4744   10.8234    4.5071 C   0  0  2  0  0  0  0  0  0  0  0  0
   28.3852    9.4377    4.3978 O   0  0  0  0  0  0  0  0  0  0  0  0
   27.2397   11.4055    5.0590 C   0  0  1  0  0  0  0  0  0  0  0  0
   27.1068   12.8635    4.5205 C   0  0  2  0  0  0  0  0  0  0  0  0
   27.5852   12.6399    3.2168 O   0  0  0  0  0  0  0  0  0  0  0  0
   27.7464   13.9937    5.3283 C   0  0  0  0  0  0  0  0  0  0  0  0
   27.0746   14.0199    6.5736 O   0  0  0  0  0  0  0  0  0  0  0  0
   25.6009    9.6378    5.5204 C   0  0  2  0  0  0  0  0  0  0  0  0
   26.1169   10.5182    4.6137 O   0  0  0  0  0  0  0  0  0  0  0  0
   24.6130   10.2908    6.4417 C   0  0  1  0  0  0  0  0  0  0  0  0
   26.9771    6.0717    9.0734 N   0  0  0  0  0  0  0  0  0  0  0  0
   35.6565   13.2916   -1.3736 O   0  0  0  0  0  0  0  0  0  0  0  0
   24.0974    9.2316    7.4917 C   0  0  2  0  0  0  0  0  0  0  0  0
   25.2441    8.5644    8.3276 C   0  0  1  0  0  0  0  0  0  0  0  0
   26.1755    7.9351    7.4209 C   0  0  1  0  0  0  0  0  0  0  0  0
   26.6865    8.9336    6.3996 O   0  0  0  0  0  0  0  0  0  0  0  0
   27.3827    7.2808    8.2257 C   0  0  0  0  0  0  0  0  0  0  0  0
   25.2330   11.3407    7.1485 N   0  0  0  0  0  0  0  0  0  0  0  0
   25.6002   11.9510    0.1329 O   0  0  0  0  0  0  0  0  0  0  0  0
   36.3273   11.9740    0.3509 C   0  0  0  0  0  0  0  0  0  0  0  0
   25.7917    9.3872    8.9112 O   0  0  0  0  0  0  0  0  0  0  0  0
   23.5708    8.3853    6.9176 O   0  0  0  0  0  0  0  0  0  0  0  0
   34.1264   11.5705   -0.4198 C   0  0  0  0  0  0  0  0  0  0  0  0
   37.6607   12.1420    0.0511 C   0  0  0  0  0  0  0  0  0  0  0  0
   35.6421   11.9898   -0.7918 C   0  0  1  0  0  0  0  0  0  0  0  0
   24.0449    9.8207    0.5128 F   0  0  0  0  0  0  0  0  0  0  0  0
  1  2  1  1  0  0  0
  1 10  1  0  0  0  0
  1  3  1  0  0  0  0
  3  4  1  1  0  0  0
  3  6  1  0  0  0  0
  5 46  2  0  0  0  0
  6 42  1  6  0  0  0
  6  8  1  0  0  0  0
  7 47  1  0  0  0  0
  8  9  1  0  0  0  0
  8 49  1  6  0  0  0
  9 10  1  0  0  0  0
  9 11  1  6  0  0  0
 11 12  1  0  0  0  0
 13 14  1  6  0  0  0
 13 15  1  0  0  0  0
 13 21  1  0  0  0  0
 14 46  1  0  0  0  0
 15 16  1  0  0  0  0
 16 17  1  6  0  0  0
 16 18  1  0  0  0  0
 18  2  1  1  0  0  0
 18 19  1  0  0  0  0
 19 20  1  6  0  0  0
 19 21  1  0  0  0  0
 21 22  1  1  0  0  0
 23 20  1  1  0  0  0
 23 24  1  0  0  0  0
 23 28  1  0  0  0  0
 24 25  1  6  0  0  0
 24 26  1  0  0  0  0
 26 27  1  0  0  0  0
 26 32  1  6  0  0  0
 27 28  1  0  0  0  0
 27 29  1  1  0  0  0
 29 30  1  0  0  0  0
 31 32  1  6  0  0  0
 31 33  1  0  0  0  0
 31 39  1  0  0  0  0
 33 36  1  0  0  0  0
 33 41  1  1  0  0  0
 34 40  1  0  0  0  0
 35 48  1  0  0  0  0
 36 37  1  0  0  0  0
 36 45  1  6  0  0  0
 37 38  1  0  0  0  0
 37 44  1  6  0  0  0
 38 39  1  0  0  0  0
 38 40  1  1  0  0  0
 43 47  1  0  0  0  0
 46 48  1  0  0  0  0
 48 43  1  1  0  0  0
M  END
>  <CHROM.1>
-68.25771600,-74.97588785,-179.44854214,63.85006336,72.35637608,68.56685347
102.16719729,-63.43200303,81.38152811,68.35834672,-171.33269111,-68.88138193
17.87324701,28.68329454,10.33500176,2.90250652,0.58104857,-0.24119392,-1.56963926

>  <Name>
ligand

>  <RI>
0

>  <Rbt.Current_Directory>
/home/itssahil/PROJECTS/Mol_Feturizer/New_Systems/rnas/4PDQ

>  <Rbt.Executable>
rbdock ($Id: //depot/dev/client3/rdock/2013.1/src/exe/rbdock.cxx#4 $)

>  <Rbt.Library>
libRbt.so (2013.1, Build901 2013/11/27)

>  <Rbt.Parameter_File>
/export/apps/rDock/src/rDock_2013.1_src/data/scripts/dock_solv.prm

>  <Rbt.Receptor>
prm/pocket_docking_3.prm

>  <SCORE>
-6.00768

>  <SCORE.INTER>
1.55609

>  <SCORE.INTER.CONST>
1

>  <SCORE.INTER.POLAR>
0

>  <SCORE.INTER.ROT>
13

>  <SCORE.INTER.SOLV>
17.5374

>  <SCORE.INTER.VDW>
-17.0751

>  <SCORE.INTER.norm>
0.0317569

>  <SCORE.INTRA>
-7.56377

>  <SCORE.INTRA.DIHEDRAL>
-22.2053

>  <SCORE.INTRA.DIHEDRAL.0>
34.5115

>  <SCORE.INTRA.POLAR>
0

>  <SCORE.INTRA.POLAR.0>
0

>  <SCORE.INTRA.REPUL>
0

>  <SCORE.INTRA.REPUL.0>
0

>  <SCORE.INTRA.SOLV>
4.63457

>  <SCORE.INTRA.SOLV.lig_0>
-122.812

>  <SCORE.INTRA.VDW>
1.22158

>  <SCORE.INTRA.VDW.0>
-7.46208

>  <SCORE.INTRA.norm>
-0.154363

>  <SCORE.RESTR>
0

>  <SCORE.RESTR.CAVITY>
0

>  <SCORE.RESTR.norm>
0

>  <SCORE.SYSTEM>
0

>  <SCORE.SYSTEM.CONST>
0

>  <SCORE.SYSTEM.DIHEDRAL>
0

>  <SCORE.SYSTEM.SOLV>
0

>  <SCORE.SYSTEM.norm>
0

>  <SCORE.heavy>
49

>  <SCORE.norm>
-0.122606

>  <RMSD>
3.419

$$$$
ligand
 OpenBabel11021811513D
libRbt.so/2013.1/901 2013/11/27
 49 52  0  0  0  0  0  0  0  0999 V2000
   27.5653   10.8591   -0.8103 C   0  0  2  0  0  0  0  0  0  0  0  0
   28.5300   11.5889   -0.1113 O   0  0  0  0  0  0  0  0  0  0  0  0
   26.3542   11.7950   -1.1772 C   0  0  2  0  0  0  0  0  0  0  0  0
   26.8582   12.9536   -2.0234 N   0  0  0  0  0  0  0  0  0  0  0  0
   33.9751   10.7739    1.5922 O   0  0  0  0  0  0  0  0  0  0  0  0
   25.6531   12.2970    0.1066 C   0  0  2  0  0  0  0  0  0  0  0  0
   37.9747   10.4642    0.4683 N   0  0  0  0  0  0  0  0  0  0  0  0
   25.1707   11.1091    0.9540 C   0  0  2  0  0  0  0  0  0  0  0  0
   26.3663   10.1400    1.3426 C   0  0  2  0  0  0  0  0  0  0  0  0
   27.0611    9.7130    0.0483 O   0  0  0  0  0  0  0  0  0  0  0  0
   25.8621    8.9109    2.1530 C   0  0  0  0  0  0  0  0  0  0  0  0
   25.0197    8.0419    1.4118 N   0  0  0  0  0  0  0  0  0  0  0  0
   31.8521    8.9513    0.7886 C   0  0  2  0  0  0  0  0  0  0  0  0
   33.2509    8.5086    1.0611 N   0  0  0  0  0  0  0  0  0  0  0  0
   31.9081    9.9264   -0.4852 C   0  0  0  0  0  0  0  0  0  0  0  0
   30.4621   10.4239   -0.8594 C   0  0  2  0  0  0  0  0  0  0  0  0
   30.5024   11.3345   -2.0131 N   0  0  0  0  0  0  0  0  0  0  0  0
   29.8327   11.1778    0.3290 C   0  0  2  0  0  0  0  0  0  0  0  0
   29.7663   10.2445    1.6047 C   0  0  2  0  0  0  0  0  0  0  0  0
   29.1466   11.0502    2.6753 O   0  0  0  0  0  0  0  0  0  0  0  0
   31.2647    9.8024    2.0056 C   0  0  1  0  0  0  0  0  0  0  0  0
   31.1857    8.9893    3.1335 O   0  0  0  0  0  0  0  0  0  0  0  0
   28.3810   10.6257    3.6220 C   0  0  1  0  0  0  0  0  0  0  0  0
   28.9034    9.3880    4.4093 C   0  0  2  0  0  0  0  0  0  0  0  0
   28.4156    8.2415    3.7868 O   0  0  0  0  0  0  0  0  0  0  0  0
   28.2245    9.6411    5.6911 C   0  0  1  0  0  0  0  0  0  0  0  0
   28.2622   11.1761    5.9663 C   0  0  2  0  0  0  0  0  0  0  0  0
   28.0595   11.6211    4.6474 O   0  0  0  0  0  0  0  0  0  0  0  0
   29.4577   11.7441    6.7324 C   0  0  0  0  0  0  0  0  0  0  0  0
   29.2300   13.1361    6.8468 O   0  0  0  0  0  0  0  0  0  0  0  0
   26.1333    8.8228    6.6813 C   0  0  2  0  0  0  0  0  0  0  0  0
   26.8299    9.1124    5.5436 O   0  0  0  0  0  0  0  0  0  0  0  0
   24.6971    8.4956    6.3957 C   0  0  1  0  0  0  0  0  0  0  0  0
   26.9881   11.2448   10.4488 N   0  0  0  0  0  0  0  0  0  0  0  0
   35.5722    7.7655    2.5427 O   0  0  0  0  0  0  0  0  0  0  0  0
   23.9425    8.2227    7.7544 C   0  0  2  0  0  0  0  0  0  0  0  0
   24.0248    9.4142    8.7705 C   0  0  1  0  0  0  0  0  0  0  0  0
   25.4144    9.7036    9.0369 C   0  0  1  0  0  0  0  0  0  0  0  0
   26.1634    9.9697    7.7448 O   0  0  0  0  0  0  0  0  0  0  0  0
   25.5467   10.9384   10.0323 C   0  0  0  0  0  0  0  0  0  0  0  0
   24.0709    9.5862    5.7594 N   0  0  0  0  0  0  0  0  0  0  0  0
   24.7547   12.9399   -0.1862 O   0  0  0  0  0  0  0  0  0  0  0  0
   36.2005    8.6324    0.5393 C   0  0  0  0  0  0  0  0  0  0  0  0
   23.5392   10.3353    8.2875 O   0  0  0  0  0  0  0  0  0  0  0  0
   24.4381    7.3183    8.2639 O   0  0  0  0  0  0  0  0  0  0  0  0
   34.2327    9.5687    1.4623 C   0  0  0  0  0  0  0  0  0  0  0  0
   36.8207    9.7571    0.0429 C   0  0  0  0  0  0  0  0  0  0  0  0
   35.6937    8.9338    1.7341 C   0  0  1  0  0  0  0  0  0  0  0  0
   24.2186   10.3640    0.2360 F   0  0  0  0  0  0  0  0  0  0  0  0
  1  2  1  1  0  0  0
  1 10  1  0  0  0  0
  1  3  1  0  0  0  0
  3  4  1  1  0  0  0
  3  6  1  0  0  0  0
  5 46  2  0  0  0  0
  6 42  1  6  0  0  0
  6  8  1  0  0  0  0
  7 47  1  0  0  0  0
  8  9  1  0  0  0  0
  8 49  1  6  0  0  0
  9 10  1  0  0  0  0
  9 11  1  6  0  0  0
 11 12  1  0  0  0  0
 13 14  1  1  0  0  0
 13 15  1  0  0  0  0
 13 21  1  0  0  0  0
 14 46  1  0  0  0  0
 15 16  1  0  0  0  0
 16 17  1  6  0  0  0
 16 18  1  0  0  0  0
 18  2  1  6  0  0  0
 18 19  1  0  0  0  0
 19 20  1  1  0  0  0
 19 21  1  0  0  0  0
 21 22  1  1  0  0  0
 23 20  1  6  0  0  0
 23 24  1  0  0  0  0
 23 28  1  0  0  0  0
 24 25  1  6  0  0  0
 24 26  1  0  0  0  0
 26 27  1  0  0  0  0
 26 32  1  6  0  0  0
 27 28  1  0  0  0  0
 27 29  1  6  0  0  0
 29 30  1  0  0  0  0
 31 32  1  6  0  0  0
 31 33  1  0  0  0  0
 31 39  1  0  0  0  0
 33 36  1  0  0  0  0
 33 41  1  1  0  0  0
 34 40  1  0  0  0  0
 35 48  1  0  0  0  0
 36 37  1  0  0  0  0
 36 45  1  1  0  0  0
 37 38  1  0  0  0  0
 37 44  1  6  0  0  0
 38 39  1  0  0  0  0
 38 40  1  1  0  0  0
 43 47  1  0  0  0  0
 46 48  1  0  0  0  0
 48 43  1  6  0  0  0
M  END
>  <CHROM.1>
-174.72757793,44.52940878,65.80965071,64.10200990,146.93868147,49.31064721
159.11664439,-179.56210858,171.71323183,175.68573812,66.90173886,-154.45990385
132.71421458,28.61056183,10.12494990,3.17548576,0.66233144,0.11779172,-1.41012555

>  <Name>
ligand

>  <RI>
0

>  <Rbt.Current_Directory>
/home/itssahil/PROJECTS/Mol_Feturizer/New_Systems/rnas/4PDQ

>  <Rbt.Executable>
rbdock ($Id: //depot/dev/client3/rdock/2013.1/src/exe/rbdock.cxx#4 $)

>  <Rbt.Library>
libRbt.so (2013.1, Build901 2013/11/27)

>  <Rbt.Parameter_File>
/export/apps/rDock/src/rDock_2013.1_src/data/scripts/dock_solv.prm

>  <Rbt.Receptor>
prm/pocket_docking_4.prm

>  <SCORE>
-6.99389

>  <SCORE.INTER>
2.65584

>  <SCORE.INTER.CONST>
1

>  <SCORE.INTER.POLAR>
0

>  <SCORE.INTER.ROT>
13

>  <SCORE.INTER.SOLV>
23.4474

>  <SCORE.INTER.VDW>
-18.3119

>  <SCORE.INTER.norm>
0.0542008

>  <SCORE.INTRA>
-9.64973

>  <SCORE.INTRA.DIHEDRAL>
-22.8385

>  <SCORE.INTRA.DIHEDRAL.0>
34.5115

>  <SCORE.INTRA.POLAR>
0

>  <SCORE.INTRA.POLAR.0>
0

>  <SCORE.INTRA.REPUL>
0

>  <SCORE.INTRA.REPUL.0>
0

>  <SCORE.INTRA.SOLV>
0.533154

>  <SCORE.INTRA.SOLV.lig_0>
-122.812

>  <SCORE.INTRA.VDW>
1.50293

>  <SCORE.INTRA.VDW.0>
-7.46208

>  <SCORE.INTRA.norm>
-0.196933

>  <SCORE.RESTR>
0

>  <SCORE.RESTR.CAVITY>
0

>  <SCORE.RESTR.norm>
0

>  <SCORE.SYSTEM>
0

>  <SCORE.SYSTEM.CONST>
0

>  <SCORE.SYSTEM.DIHEDRAL>
0

>  <SCORE.SYSTEM.SOLV>
0

>  <SCORE.SYSTEM.norm>
0

>  <SCORE.heavy>
49

>  <SCORE.norm>
-0.142732

>  <RMSD>
3.449

$$$$
ligand
 OpenBabel11021811513D
libRbt.so/2013.1/901 2013/11/27
 49 52  0  0  0  0  0  0  0  0999 V2000
   26.6047    8.8305    2.7036 C   0  0  2  0  0  0  0  0  0  0  0  0
   27.7529    8.5613    1.9545 O   0  0  0  0  0  0  0  0  0  0  0  0
   26.0947    7.5078    3.3873 C   0  0  2  0  0  0  0  0  0  0  0  0
   27.1927    6.9534    4.2814 N   0  0  0  0  0  0  0  0  0  0  0  0
   33.9892    9.6050   -0.1322 O   0  0  0  0  0  0  0  0  0  0  0  0
   25.6658    6.4783    2.3158 C   0  0  2  0  0  0  0  0  0  0  0  0
   37.5491   13.5827   -0.9448 N   0  0  0  0  0  0  0  0  0  0  0  0
   24.5707    7.0679    1.4132 C   0  0  2  0  0  0  0  0  0  0  0  0
   25.0486    8.4064    0.7065 C   0  0  2  0  0  0  0  0  0  0  0  0
   25.5122    9.3717    1.7990 O   0  0  0  0  0  0  0  0  0  0  0  0
   23.9162    9.0272   -0.1618 C   0  0  0  0  0  0  0  0  0  0  0  0
   24.3487   10.0954   -0.9899 N   0  0  0  0  0  0  0  0  0  0  0  0
   31.3826   10.5849    0.7164 C   0  0  2  0  0  0  0  0  0  0  0  0
   32.3202   11.3805   -0.1291 N   0  0  0  0  0  0  0  0  0  0  0  0
   30.6820    9.5078   -0.2454 C   0  0  0  0  0  0  0  0  0  0  0  0
   29.6883    8.6036    0.5752 C   0  0  2  0  0  0  0  0  0  0  0  0
   29.0246    7.6254   -0.2992 N   0  0  0  0  0  0  0  0  0  0  0  0
   28.6018    9.4719    1.2404 C   0  0  2  0  0  0  0  0  0  0  0  0
   29.2602   10.5491    2.1938 C   0  0  2  0  0  0  0  0  0  0  0  0
   28.1455   11.3173    2.7826 O   0  0  0  0  0  0  0  0  0  0  0  0
   30.2219   11.5024    1.3176 C   0  0  1  0  0  0  0  0  0  0  0  0
   30.7848   12.4471    2.1722 O   0  0  0  0  0  0  0  0  0  0  0  0
   27.7570   11.3031    4.0121 C   0  0  1  0  0  0  0  0  0  0  0  0
   28.8525   11.6274    5.0702 C   0  0  2  0  0  0  0  0  0  0  0  0
   29.4430   10.4288    5.4633 O   0  0  0  0  0  0  0  0  0  0  0  0
   27.9832   12.1762    6.1243 C   0  0  1  0  0  0  0  0  0  0  0  0
   26.8713   13.0309    5.4413 C   0  0  2  0  0  0  0  0  0  0  0  0
   26.6503   12.2123    4.3190 O   0  0  0  0  0  0  0  0  0  0  0  0
   27.1486   14.5147    5.1954 C   0  0  0  0  0  0  0  0  0  0  0  0
   25.9124   15.0919    4.8194 O   0  0  0  0  0  0  0  0  0  0  0  0
   26.4548   10.2619    6.2742 C   0  0  2  0  0  0  0  0  0  0  0  0
   27.4329   11.0011    6.8744 O   0  0  0  0  0  0  0  0  0  0  0  0
   25.1176   10.9397    6.3351 C   0  0  1  0  0  0  0  0  0  0  0  0
   24.9416    6.5659    8.4438 N   0  0  0  0  0  0  0  0  0  0  0  0
   33.6797   12.6078   -2.1282 O   0  0  0  0  0  0  0  0  0  0  0  0
   24.0291   10.0101    5.6710 C   0  0  2  0  0  0  0  0  0  0  0  0
   23.9344    8.5869    6.3225 C   0  0  1  0  0  0  0  0  0  0  0  0
   25.2289    7.9516    6.2431 C   0  0  1  0  0  0  0  0  0  0  0  0
   26.2947    8.8265    6.8753 O   0  0  0  0  0  0  0  0  0  0  0  0
   25.1906    6.5181    6.9336 C   0  0  0  0  0  0  0  0  0  0  0  0
   24.7471   11.1564    7.6775 N   0  0  0  0  0  0  0  0  0  0  0  0
   25.2621    5.5444    2.8365 O   0  0  0  0  0  0  0  0  0  0  0  0
   35.3261   12.3855   -0.5791 C   0  0  0  0  0  0  0  0  0  0  0  0
   23.6496    8.7134    7.4273 O   0  0  0  0  0  0  0  0  0  0  0  0
   24.3181    9.8511    4.5690 O   0  0  0  0  0  0  0  0  0  0  0  0
   33.6294   10.7388   -0.4798 C   0  0  0  0  0  0  0  0  0  0  0  0
   36.3468   12.9322   -1.3244 C   0  0  0  0  0  0  0  0  0  0  0  0
   34.5247   11.7149   -1.4056 C   0  0  1  0  0  0  0  0  0  0  0  0
   23.4266    7.3601    2.1767 F   0  0  0  0  0  0  0  0  0  0  0  0
  1  2  1  6  0  0  0
  1 10  1  0  0  0  0
  1  3  1  0  0  0  0
  3  4  1  6  0  0  0
  3  6  1  0  0  0  0
  5 46  2  0  0  0  0
  6 42  1  1  0  0  0
  6  8  1  0  0  0  0
  7 47  1  0  0  0  0
  8  9  1  0  0  0  0
  8 49  1  1  0  0  0
  9 10  1  0  0  0  0
  9 11  1  1  0  0  0
 11 12  1  0  0  0  0
 13 14  1  6  0  0  0
 13 15  1  0  0  0  0
 13 21  1  0  0  0  0
 14 46  1  0  0  0  0
 15 16  1  0  0  0  0
 16 17  1  6  0  0  0
 16 18  1  0  0  0  0
 18  2  1  1  0  0  0
 18 19  1  0  0  0  0
 19 20  1  6  0  0  0
 19 21  1  0  0  0  0
 21 22  1  1  0  0  0
 23 20  1  6  0  0  0
 23 24  1  0  0  0  0
 23 28  1  0  0  0  0
 24 25  1  1  0  0  0
 24 26  1  0  0  0  0
 26 27  1  0  0  0  0
 26 32  1  6  0  0  0
 27 28  1  0  0  0  0
 27 29  1  6  0  0  0
 29 30  1  0  0  0  0
 31 32  1  1  0  0  0
 31 33  1  0  0  0  0
 31 39  1  0  0  0  0
 33 36  1  0  0  0  0
 33 41  1  1  0  0  0
 34 40  1  0  0  0  0
 35 48  1  0  0  0  0
 36 37  1  0  0  0  0
 36 45  1  6  0  0  0
 37 38  1  0  0  0  0
 37 44  1  1  0  0  0
 38 39  1  0  0  0  0
 38 40  1  1  0  0  0
 43 47  1  0  0  0  0
 46 48  1  0  0  0  0
 48 43  1  1  0  0  0
M  END
>  <CHROM.1>
-175.48309654,-178.57242859,-170.04750374,-77.90209350,110.86282456,54.97993998
-74.54728708,-168.88296345,-77.12522738,-65.50065389,-170.64466058,-77.40032746
153.12135762,27.96981823,10.05066802,2.99301979,2.87030337,0.58287627,0.92385125

>  <Name>
ligand

>  <RI>
0

>  <Rbt.Current_Directory>
/home/itssahil/PROJECTS/Mol_Feturizer/New_Systems/rnas/4PDQ

>  <Rbt.Executable>
rbdock ($Id: //depot/dev/client3/rdock/2013.1/src/exe/rbdock.cxx#4 $)

>  <Rbt.Library>
libRbt.so (2013.1, Build901 2013/11/27)

>  <Rbt.Parameter_File>
/export/apps/rDock/src/rDock_2013.1_src/data/scripts/dock_solv.prm

>  <Rbt.Receptor>
prm/pocket_docking_5.prm

>  <SCORE>
-11.9301

>  <SCORE.INTER>
-4.93517

>  <SCORE.INTER.CONST>
1

>  <SCORE.INTER.POLAR>
0

>  <SCORE.INTER.ROT>
13

>  <SCORE.INTER.SOLV>
19.9294

>  <SCORE.INTER.VDW>
-22.1999

>  <SCORE.INTER.norm>
-0.100718

>  <SCORE.INTRA>
-6.99498

>  <SCORE.INTRA.DIHEDRAL>
-20.8352

>  <SCORE.INTRA.DIHEDRAL.0>
34.5115

>  <SCORE.INTRA.POLAR>
0

>  <SCORE.INTRA.POLAR.0>
0

>  <SCORE.INTRA.REPUL>
0.0109999

>  <SCORE.INTRA.REPUL.0>
0

>  <SCORE.INTRA.SOLV>
2.0065

>  <SCORE.INTRA.SOLV.lig_0>
-122.812

>  <SCORE.INTRA.VDW>
2.36438

>  <SCORE.INTRA.VDW.0>
-7.46208

>  <SCORE.INTRA.norm>
-0.142755

>  <SCORE.RESTR>
0

>  <SCORE.RESTR.CAVITY>
0

>  <SCORE.RESTR.norm>
0

>  <SCORE.SYSTEM>
0

>  <SCORE.SYSTEM.CONST>
0

>  <SCORE.SYSTEM.DIHEDRAL>
0

>  <SCORE.SYSTEM.SOLV>
0

>  <SCORE.SYSTEM.norm>
0

>  <SCORE.heavy>
49

>  <SCORE.norm>
-0.243472

>  <RMSD>
3.449

$$$$
ligand
 OpenBabel11021811513D
libRbt.so/2013.1/901 2013/11/27
 49 52  0  0  0  0  0  0  0  0999 V2000
   27.4119   11.0795   -1.1903 C   0  0  2  0  0  0  0  0  0  0  0  0
   28.2843   11.9398   -0.5189 O   0  0  0  0  0  0  0  0  0  0  0  0
   26.1527   11.8823   -1.6873 C   0  0  2  0  0  0  0  0  0  0  0  0
   26.6077   13.0018   -2.6104 N   0  0  0  0  0  0  0  0  0  0  0  0
   32.8318    7.0773    0.4971 O   0  0  0  0  0  0  0  0  0  0  0  0
   25.3551   12.4334   -0.4824 C   0  0  2  0  0  0  0  0  0  0  0  0
   38.1403    9.4835    1.3766 N   0  0  0  0  0  0  0  0  0  0  0  0
   24.9237   11.2867    0.4453 C   0  0  2  0  0  0  0  0  0  0  0  0
   26.1690   10.4515    0.9662 C   0  0  2  0  0  0  0  0  0  0  0  0
   26.9551    9.9735   -0.2560 O   0  0  0  0  0  0  0  0  0  0  0  0
   25.7208    9.2589    1.8597 C   0  0  0  0  0  0  0  0  0  0  0  0
   24.9339    8.2951    1.1772 N   0  0  0  0  0  0  0  0  0  0  0  0
   31.6086    9.6554    1.0730 C   0  0  2  0  0  0  0  0  0  0  0  0
   33.0070    9.3083    1.4614 N   0  0  0  0  0  0  0  0  0  0  0  0
   31.6693   10.2526   -0.4156 C   0  0  0  0  0  0  0  0  0  0  0  0
   30.2242   10.6250   -0.9169 C   0  0  2  0  0  0  0  0  0  0  0  0
   30.2687   11.1923   -2.2726 N   0  0  0  0  0  0  0  0  0  0  0  0
   29.5855   11.6678    0.0221 C   0  0  2  0  0  0  0  0  0  0  0  0
   29.5143   11.1112    1.5013 C   0  0  2  0  0  0  0  0  0  0  0  0
   28.8859   12.1723    2.3130 O   0  0  0  0  0  0  0  0  0  0  0  0
   31.0116   10.7997    2.0137 C   0  0  1  0  0  0  0  0  0  0  0  0
   30.9281   10.3191    3.3182 O   0  0  0  0  0  0  0  0  0  0  0  0
   27.9804   12.0231    3.2188 C   0  0  1  0  0  0  0  0  0  0  0  0
   28.2855   10.9541    4.3091 C   0  0  2  0  0  0  0  0  0  0  0  0
   27.7591    9.7375    3.8816 O   0  0  0  0  0  0  0  0  0  0  0  0
   27.4955   11.5315    5.4093 C   0  0  1  0  0  0  0  0  0  0  0  0
   27.6545   13.0825    5.3599 C   0  0  2  0  0  0  0  0  0  0  0  0
   27.6465   13.2403    3.9622 O   0  0  0  0  0  0  0  0  0  0  0  0
   28.8070   13.7163    6.1402 C   0  0  0  0  0  0  0  0  0  0  0  0
   28.6039   13.3707    7.4974 O   0  0  0  0  0  0  0  0  0  0  0  0
   25.7550    9.8060    5.5378 C   0  0  2  0  0  0  0  0  0  0  0  0
   26.0806   11.0863    5.1941 O   0  0  0  0  0  0  0  0  0  0  0  0
   24.2902    9.6542    5.8253 C   0  0  1  0  0  0  0  0  0  0  0  0
   26.9147    8.3017    9.6853 N   0  0  0  0  0  0  0  0  0  0  0  0
   35.5132    6.4781    1.0663 O   0  0  0  0  0  0  0  0  0  0  0  0
   23.9945    8.1675    6.2639 C   0  0  2  0  0  0  0  0  0  0  0  0
   24.8315    7.6988    7.5042 C   0  0  1  0  0  0  0  0  0  0  0  0
   26.2357    7.8448    7.2002 C   0  0  1  0  0  0  0  0  0  0  0  0
   26.5467    9.2673    6.7748 O   0  0  0  0  0  0  0  0  0  0  0  0
   27.1247    7.4209    8.4504 C   0  0  0  0  0  0  0  0  0  0  0  0
   23.9155   10.5051    6.8844 N   0  0  0  0  0  0  0  0  0  0  0  0
   24.4258   12.9762   -0.8672 O   0  0  0  0  0  0  0  0  0  0  0  0
   35.7183    8.7403    1.0768 C   0  0  0  0  0  0  0  0  0  0  0  0
   24.5712    8.3768    8.3930 O   0  0  0  0  0  0  0  0  0  0  0  0
   24.2784    7.4735    5.3915 O   0  0  0  0  0  0  0  0  0  0  0  0
   33.4924    7.9369    1.0974 C   0  0  0  0  0  0  0  0  0  0  0  0
   36.9917    8.6805    1.5973 C   0  0  0  0  0  0  0  0  0  0  0  0
   35.0217    7.7177    1.5713 C   0  0  1  0  0  0  0  0  0  0  0  0
   24.0659   10.4106   -0.2432 F   0  0  0  0  0  0  0  0  0  0  0  0
  1  2  1  1  0  0  0
  1 10  1  0  0  0  0
  1  3  1  0  0  0  0
  3  4  1  6  0  0  0
  3  6  1  0  0  0  0
  5 46  2  0  0  0  0
  6 42  1  6  0  0  0
  6  8  1  0  0  0  0
  7 47  1  0  0  0  0
  8  9  1  0  0  0  0
  8 49  1  6  0  0  0
  9 10  1  0  0  0  0
  9 11  1  6  0  0  0
 11 12  1  0  0  0  0
 13 14  1  1  0  0  0
 13 15  1  0  0  0  0
 13 21  1  0  0  0  0
 14 46  1  0  0  0  0
 15 16  1  0  0  0  0
 16 17  1  6  0  0  0
 16 18  1  0  0  0  0
 18  2  1  6  0  0  0
 18 19  1  0  0  0  0
 19 20  1  1  0  0  0
 19 21  1  0  0  0  0
 21 22  1  1  0  0  0
 23 20  1  6  0  0  0
 23 24  1  0  0  0  0
 23 28  1  0  0  0  0
 24 25  1  6  0  0  0
 24 26  1  0  0  0  0
 26 27  1  0  0  0  0
 26 32  1  6  0  0  0
 27 28  1  0  0  0  0
 27 29  1  6  0  0  0
 29 30  1  0  0  0  0
 31 32  1  1  0  0  0
 31 33  1  0  0  0  0
 31 39  1  0  0  0  0
 33 36  1  0  0  0  0
 33 41  1  1  0  0  0
 34 40  1  0  0  0  0
 35 48  1  0  0  0  0
 36 37  1  0  0  0  0
 36 45  1  6  0  0  0
 37 38  1  0  0  0  0
 37 44  1  1  0  0  0
 38 39  1  0  0  0  0
 38 40  1  1  0  0  0
 43 47  1  0  0  0  0
 46 48  1  0  0  0  0
 48 43  1  6  0  0  0
M  END
>  <CHROM.1>
-175.50344876,33.36327137,63.24324432,-88.01450293,136.97730998,50.98007345
77.46830251,-60.21663957,156.00908805,-63.17672180,177.60647235,-68.00444969
6.45693131,28.41515336,10.19539873,2.78036856,0.52039804,0.23594483,-1.27495977

>  <Name>
ligand

>  <RI>
0

>  <Rbt.Current_Directory>
/home/itssahil/PROJECTS/Mol_Feturizer/New_Systems/rnas/4PDQ

>  <Rbt.Executable>
rbdock ($Id: //depot/dev/client3/rdock/2013.1/src/exe/rbdock.cxx#4 $)

>  <Rbt.Library>
libRbt.so (2013.1, Build901 2013/11/27)

>  <Rbt.Parameter_File>
/export/apps/rDock/src/rDock_2013.1_src/data/scripts/dock_solv.prm

>  <Rbt.Receptor>
prm/pocket_docking_3.prm

>  <SCORE>
-6.77208

>  <SCORE.INTER>
-0.783849

>  <SCORE.INTER.CONST>
1

>  <SCORE.INTER.POLAR>
0

>  <SCORE.INTER.ROT>
13

>  <SCORE.INTER.SOLV>
26.0428

>  <SCORE.INTER.VDW>
-21.4702

>  <SCORE.INTER.norm>
-0.0159969

>  <SCORE.INTRA>
-5.98823

>  <SCORE.INTRA.DIHEDRAL>
-19.5208

>  <SCORE.INTRA.DIHEDRAL.0>
34.5115

>  <SCORE.INTRA.POLAR>
0

>  <SCORE.INTRA.POLAR.0>
0

>  <SCORE.INTRA.REPUL>
0

>  <SCORE.INTRA.REPUL.0>
0

>  <SCORE.INTRA.SOLV>
0.427446

>  <SCORE.INTRA.SOLV.lig_0>
-122.812

>  <SCORE.INTRA.VDW>
3.55844

>  <SCORE.INTRA.VDW.0>
-7.46208

>  <SCORE.INTRA.norm>
-0.122209

>  <SCORE.RESTR>
0

>  <SCORE.RESTR.CAVITY>
0

>  <SCORE.RESTR.norm>
0

>  <SCORE.SYSTEM>
0

>  <SCORE.SYSTEM.CONST>
0

>  <SCORE.SYSTEM.DIHEDRAL>
0

>  <SCORE.SYSTEM.SOLV>
0

>  <SCORE.SYSTEM.norm>
0

>  <SCORE.heavy>
49

>  <SCORE.norm>
-0.138206

>  <RMSD>
3.514

$$$$
ligand
 OpenBabel11021811513D
libRbt.so/2013.1/901 2013/11/27
 49 52  0  0  0  0  0  0  0  0999 V2000
   25.4216   10.1012    0.5118 C   0  0  2  0  0  0  0  0  0  0  0  0
   26.5115    9.2973    0.1684 O   0  0  0  0  0  0  0  0  0  0  0  0
   24.0898    9.4369   -0.0002 C   0  0  2  0  0  0  0  0  0  0  0  0
   23.9485    8.0577    0.6244 N   0  0  0  0  0  0  0  0  0  0  0  0
   31.5191   10.0695    2.8637 O   0  0  0  0  0  0  0  0  0  0  0  0
   24.0854    9.3600   -1.5449 C   0  0  2  0  0  0  0  0  0  0  0  0
   36.9612    9.5351    2.1927 N   0  0  0  0  0  0  0  0  0  0  0  0
   24.2492   10.7621   -2.1523 C   0  0  2  0  0  0  0  0  0  0  0  0
   25.5829   11.4657   -1.6566 C   0  0  2  0  0  0  0  0  0  0  0  0
   25.5676   11.4707   -0.1269 O   0  0  0  0  0  0  0  0  0  0  0  0
   25.7143   12.9057   -2.2315 C   0  0  0  0  0  0  0  0  0  0  0  0
   24.6782   13.7840   -1.8203 N   0  0  0  0  0  0  0  0  0  0  0  0
   30.7986    8.6901    0.4035 C   0  0  2  0  0  0  0  0  0  0  0  0
   32.2050    8.8256    0.8837 N   0  0  0  0  0  0  0  0  0  0  0  0
   30.1898   10.1723    0.3093 C   0  0  0  0  0  0  0  0  0  0  0  0
   28.7067   10.1239   -0.2163 C   0  0  2  0  0  0  0  0  0  0  0  0
   28.1307   11.4749   -0.2878 N   0  0  0  0  0  0  0  0  0  0  0  0
   27.8325    9.2759    0.7290 C   0  0  2  0  0  0  0  0  0  0  0  0
   28.4086    7.8072    0.8477 C   0  0  2  0  0  0  0  0  0  0  0  0
   27.5044    7.0804    1.7607 O   0  0  0  0  0  0  0  0  0  0  0  0
   29.9033    7.8806    1.4493 C   0  0  1  0  0  0  0  0  0  0  0  0
   30.3891    6.5795    1.5533 O   0  0  0  0  0  0  0  0  0  0  0  0
   27.1101    7.4606    2.9281 C   0  0  1  0  0  0  0  0  0  0  0  0
   26.2280    6.4416    3.7079 C   0  0  2  0  0  0  0  0  0  0  0  0
   24.8939    6.7028    3.4044 O   0  0  0  0  0  0  0  0  0  0  0  0
   26.5660    6.8625    5.0778 C   0  0  1  0  0  0  0  0  0  0  0  0
   28.0862    7.2100    5.1183 C   0  0  2  0  0  0  0  0  0  0  0  0
   28.1861    7.8200    3.8548 O   0  0  0  0  0  0  0  0  0  0  0  0
   29.0751    6.0907    5.4474 C   0  0  0  0  0  0  0  0  0  0  0  0
   30.3658    6.6649    5.3632 O   0  0  0  0  0  0  0  0  0  0  0  0
   25.6537    8.4857    6.6766 C   0  0  2  0  0  0  0  0  0  0  0  0
   25.6933    8.0412    5.3865 O   0  0  0  0  0  0  0  0  0  0  0  0
   25.0551    7.4704    7.6051 C   0  0  1  0  0  0  0  0  0  0  0  0
   24.5863   12.8393    7.4092 N   0  0  0  0  0  0  0  0  0  0  0  0
   34.4906    8.2943    2.6987 O   0  0  0  0  0  0  0  0  0  0  0  0
   24.9937    8.0679    9.0643 C   0  0  2  0  0  0  0  0  0  0  0  0
   24.1941    9.4133    9.1604 C   0  0  1  0  0  0  0  0  0  0  0  0
   24.7940   10.3761    8.2667 C   0  0  1  0  0  0  0  0  0  0  0  0
   24.8653    9.8250    6.8552 O   0  0  0  0  0  0  0  0  0  0  0  0
   23.9860   11.7469    8.2989 C   0  0  0  0  0  0  0  0  0  0  0  0
   23.7397    7.1642    7.2024 N   0  0  0  0  0  0  0  0  0  0  0  0
   23.0930    8.9125   -1.8931 O   0  0  0  0  0  0  0  0  0  0  0  0
   34.5967   10.2621    1.5689 C   0  0  0  0  0  0  0  0  0  0  0  0
   23.1143    9.2168    8.8245 O   0  0  0  0  0  0  0  0  0  0  0  0
   26.0688    8.2968    9.4031 O   0  0  0  0  0  0  0  0  0  0  0  0
   32.4150    9.5688    2.1692 C   0  0  0  0  0  0  0  0  0  0  0  0
   35.9107   10.4528    1.9336 C   0  0  0  0  0  0  0  0  0  0  0  0
   33.9820    9.6193    2.5610 C   0  0  1  0  0  0  0  0  0  0  0  0
   23.1622   11.5741   -1.7829 F   0  0  0  0  0  0  0  0  0  0  0  0
  1  2  1  6  0  0  0
  1 10  1  0  0  0  0
  1  3  1  0  0  0  0
  3  4  1  1  0  0  0
  3  6  1  0  0  0  0
  5 46  2  0  0  0  0
  6 42  1  6  0  0  0
  6  8  1  0  0  0  0
  7 47  1  0  0  0  0
  8  9  1  0  0  0  0
  8 49  1  1  0  0  0
  9 10  1  0  0  0  0
  9 11  1  6  0  0  0
 11 12  1  0  0  0  0
 13 14  1  1  0  0  0
 13 15  1  0  0  0  0
 13 21  1  0  0  0  0
 14 46  1  0  0  0  0
 15 16  1  0  0  0  0
 16 17  1  1  0  0  0
 16 18  1  0  0  0  0
 18  2  1  6  0  0  0
 18 19  1  0  0  0  0
 19 20  1  1  0  0  0
 19 21  1  0  0  0  0
 21 22  1  6  0  0  0
 23 20  1  6  0  0  0
 23 24  1  0  0  0  0
 23 28  1  0  0  0  0
 24 25  1  6  0  0  0
 24 26  1  0  0  0  0
 26 27  1  0  0  0  0
 26 32  1  6  0  0  0
 27 28  1  0  0  0  0
 27 29  1  6  0  0  0
 29 30  1  0  0  0  0
 31 32  1  6  0  0  0
 31 33  1  0  0  0  0
 31 39  1  0  0  0  0
 33 36  1  0  0  0  0
 33 41  1  6  0  0  0
 34 40  1  0  0  0  0
 35 48  1  0  0  0  0
 36 37  1  0  0  0  0
 36 45  1  6  0  0  0
 37 38  1  0  0  0  0
 37 44  1  6  0  0  0
 38 39  1  0  0  0  0
 38 40  1  6  0  0  0
 43 47  1  0  0  0  0
 46 48  1  0  0  0  0
 48 43  1  6  0  0  0
M  END
>  <CHROM.1>
-160.08901335,-97.97535059,62.25190425,55.19472747,-50.65569382,-176.08344795
169.41900719,177.71505321,-64.83489027,178.13828499,63.86416243,-66.98408956
119.93843422,27.46374824,9.16153103,2.86424856,2.45758056,-0.12067593,1.81932955

>  <Name>
ligand

>  <RI>
0

>  <Rbt.Current_Directory>
/home/itssahil/PROJECTS/Mol_Feturizer/New_Systems/rnas/4PDQ

>  <Rbt.Executable>
rbdock ($Id: //depot/dev/client3/rdock/2013.1/src/exe/rbdock.cxx#4 $)

>  <Rbt.Library>
libRbt.so (2013.1, Build901 2013/11/27)

>  <Rbt.Parameter_File>
/export/apps/rDock/src/rDock_2013.1_src/data/scripts/dock_solv.prm

>  <Rbt.Receptor>
prm/pocket_docking_6.prm

>  <SCORE>
-9.54445

>  <SCORE.INTER>
-2.61882

>  <SCORE.INTER.CONST>
1

>  <SCORE.INTER.POLAR>
0

>  <SCORE.INTER.ROT>
13

>  <SCORE.INTER.SOLV>
26.6802

>  <SCORE.INTER.VDW>
-22.9059

>  <SCORE.INTER.norm>
-0.0534454

>  <SCORE.INTRA>
-6.92563

>  <SCORE.INTRA.DIHEDRAL>
-25.319

>  <SCORE.INTRA.DIHEDRAL.0>
34.5115

>  <SCORE.INTRA.POLAR>
0

>  <SCORE.INTRA.POLAR.0>
0

>  <SCORE.INTRA.REPUL>
0.051101

>  <SCORE.INTRA.REPUL.0>
0

>  <SCORE.INTRA.SOLV>
3.80338

>  <SCORE.INTRA.SOLV.lig_0>
-122.812

>  <SCORE.INTRA.VDW>
3.57668

>  <SCORE.INTRA.VDW.0>
-7.46208

>  <SCORE.INTRA.norm>
-0.141339

>  <SCORE.RESTR>
0

>  <SCORE.RESTR.CAVITY>
0

>  <SCORE.RESTR.norm>
0

>  <SCORE.SYSTEM>
0

>  <SCORE.SYSTEM.CONST>
0

>  <SCORE.SYSTEM.DIHEDRAL>
0

>  <SCORE.SYSTEM.SOLV>
0

>  <SCORE.SYSTEM.norm>
0

>  <SCORE.heavy>
49

>  <SCORE.norm>
-0.194785

>  <RMSD>
3.523

$$$$
ligand
 OpenBabel11021811513D
libRbt.so/2013.1/901 2013/11/27
 49 52  0  0  0  0  0  0  0  0999 V2000
   27.4464   11.1859    1.4201 C   0  0  2  0  0  0  0  0  0  0  0  0
   28.5260   10.7574    2.1965 O   0  0  0  0  0  0  0  0  0  0  0  0
   26.1851   11.4000    2.3368 C   0  0  2  0  0  0  0  0  0  0  0  0
   26.5136   12.4327    3.4035 N   0  0  0  0  0  0  0  0  0  0  0  0
   34.8218    7.9902    2.7130 O   0  0  0  0  0  0  0  0  0  0  0  0
   25.7433   10.0585    2.9671 C   0  0  2  0  0  0  0  0  0  0  0  0
   36.9775    7.8991   -1.2445 N   0  0  0  0  0  0  0  0  0  0  0  0
   25.4363    9.0261    1.8710 C   0  0  2  0  0  0  0  0  0  0  0  0
   26.6867    8.7847    0.9236 C   0  0  2  0  0  0  0  0  0  0  0  0
   27.1201   10.1422    0.3670 O   0  0  0  0  0  0  0  0  0  0  0  0
   26.3512    7.7802   -0.2167 C   0  0  0  0  0  0  0  0  0  0  0  0
   26.0950    6.4607    0.2384 N   0  0  0  0  0  0  0  0  0  0  0  0
   32.7305    9.7844    1.7739 C   0  0  2  0  0  0  0  0  0  0  0  0
   34.1622    9.9164    1.3741 N   0  0  0  0  0  0  0  0  0  0  0  0
   31.8473   10.1571    0.4865 C   0  0  0  0  0  0  0  0  0  0  0  0
   30.3138   10.0195    0.8146 C   0  0  2  0  0  0  0  0  0  0  0  0
   29.4932   10.3780   -0.3516 N   0  0  0  0  0  0  0  0  0  0  0  0
   29.9311   10.9538    1.9797 C   0  0  2  0  0  0  0  0  0  0  0  0
   30.7881   10.6152    3.2658 C   0  0  2  0  0  0  0  0  0  0  0  0
   30.3445   11.5518    4.3172 O   0  0  0  0  0  0  0  0  0  0  0  0
   32.3497   10.8271    2.9221 C   0  0  1  0  0  0  0  0  0  0  0  0
   33.0855   10.5322    4.0672 O   0  0  0  0  0  0  0  0  0  0  0  0
   29.3406   11.4063    5.1132 C   0  0  1  0  0  0  0  0  0  0  0  0
   29.5111   10.3300    6.2254 C   0  0  2  0  0  0  0  0  0  0  0  0
   29.0274    9.1197    5.7344 O   0  0  0  0  0  0  0  0  0  0  0  0
   28.6054   10.9091    7.2315 C   0  0  1  0  0  0  0  0  0  0  0  0
   28.7811   12.4590    7.2088 C   0  0  2  0  0  0  0  0  0  0  0  0
   28.9336   12.6230    5.8201 O   0  0  0  0  0  0  0  0  0  0  0  0
   29.8420   13.0798    8.1187 C   0  0  0  0  0  0  0  0  0  0  0  0
   31.0888   12.5834    7.6695 O   0  0  0  0  0  0  0  0  0  0  0  0
   26.3278   10.2456    7.8606 C   0  0  2  0  0  0  0  0  0  0  0  0
   27.2209   10.4768    6.8543 O   0  0  0  0  0  0  0  0  0  0  0  0
   24.9852    9.8266    7.3382 C   0  0  1  0  0  0  0  0  0  0  0  0
   26.3568   12.9925   11.5057 N   0  0  0  0  0  0  0  0  0  0  0  0
   37.3330    9.9962    2.3429 O   0  0  0  0  0  0  0  0  0  0  0  0
   23.9921    9.6269    8.5481 C   0  0  2  0  0  0  0  0  0  0  0  0
   23.8379   10.8986    9.4524 C   0  0  1  0  0  0  0  0  0  0  0  0
   25.1398   11.2763    9.9504 C   0  0  1  0  0  0  0  0  0  0  0  0
   26.1147   11.4742    8.8052 O   0  0  0  0  0  0  0  0  0  0  0  0
   25.0371   12.5919   10.8401 C   0  0  0  0  0  0  0  0  0  0  0  0
   24.4581   10.8305    6.5012 N   0  0  0  0  0  0  0  0  0  0  0  0
   24.8037   10.2327    3.5941 O   0  0  0  0  0  0  0  0  0  0  0  0
   37.1982    7.9850    1.2956 C   0  0  0  0  0  0  0  0  0  0  0  0
   23.4246   11.7531    8.8069 O   0  0  0  0  0  0  0  0  0  0  0  0
   24.4095    8.7916    9.2199 O   0  0  0  0  0  0  0  0  0  0  0  0
   35.1220    8.9161    1.9460 C   0  0  0  0  0  0  0  0  0  0  0  0
   36.8151    7.4431    0.0891 C   0  0  0  0  0  0  0  0  0  0  0  0
   36.6238    9.1816    1.4118 C   0  0  1  0  0  0  0  0  0  0  0  0
   24.3655    9.4741    1.0774 F   0  0  0  0  0  0  0  0  0  0  0  0
  1  2  1  1  0  0  0
  1 10  1  0  0  0  0
  1  3  1  0  0  0  0
  3  4  1  1  0  0  0
  3  6  1  0  0  0  0
  5 46  2  0  0  0  0
  6 42  1  6  0  0  0
  6  8  1  0  0  0  0
  7 47  1  0  0  0  0
  8  9  1  0  0  0  0
  8 49  1  6  0  0  0
  9 10  1  0  0  0  0
  9 11  1  6  0  0  0
 11 12  1  0  0  0  0
 13 14  1  6  0  0  0
 13 15  1  0  0  0  0
 13 21  1  0  0  0  0
 14 46  1  0  0  0  0
 15 16  1  0  0  0  0
 16 17  1  6  0  0  0
 16 18  1  0  0  0  0
 18  2  1  1  0  0  0
 18 19  1  0  0  0  0
 19 20  1  1  0  0  0
 19 21  1  0  0  0  0
 21 22  1  1  0  0  0
 23 20  1  1  0  0  0
 23 24  1  0  0  0  0
 23 28  1  0  0  0  0
 24 25  1  6  0  0  0
 24 26  1  0  0  0  0
 26 27  1  0  0  0  0
 26 32  1  6  0  0  0
 27 28  1  0  0  0  0
 27 29  1  1  0  0  0
 29 30  1  0  0  0  0
 31 32  1  6  0  0  0
 31 33  1  0  0  0  0
 31 39  1  0  0  0  0
 33 36  1  0  0  0  0
 33 41  1  6  0  0  0
 34 40  1  0  0  0  0
 35 48  1  0  0  0  0
 36 37  1  0  0  0  0
 36 45  1  1  0  0  0
 37 38  1  0  0  0  0
 37 44  1  6  0  0  0
 38 39  1  0  0  0  0
 38 40  1  6  0  0  0
 43 47  1  0  0  0  0
 46 48  1  0  0  0  0
 48 43  1  1  0  0  0
M  END
>  <CHROM.1>
-151.35978649,-73.24029719,-66.45867024,-142.95207956,85.16683683,71.87762603
146.53096329,63.53143695,179.75467927,175.05338191,59.19144527,-158.19738203
-86.72379449,28.98496000,10.31448220,4.26169401,0.65814652,-0.01683589,-1.86940975

>  <Name>
ligand

>  <RI>
0

>  <Rbt.Current_Directory>
/home/itssahil/PROJECTS/Mol_Feturizer/New_Systems/rnas/4PDQ

>  <Rbt.Executable>
rbdock ($Id: //depot/dev/client3/rdock/2013.1/src/exe/rbdock.cxx#4 $)

>  <Rbt.Library>
libRbt.so (2013.1, Build901 2013/11/27)

>  <Rbt.Parameter_File>
/export/apps/rDock/src/rDock_2013.1_src/data/scripts/dock_solv.prm

>  <Rbt.Receptor>
prm/pocket_docking_4.prm

>  <SCORE>
-6.48951

>  <SCORE.INTER>
-0.418795

>  <SCORE.INTER.CONST>
1

>  <SCORE.INTER.POLAR>
0

>  <SCORE.INTER.ROT>
13

>  <SCORE.INTER.SOLV>
17.1502

>  <SCORE.INTER.VDW>
-18.2626

>  <SCORE.INTER.norm>
-0.00854683

>  <SCORE.INTRA>
-6.07159

>  <SCORE.INTRA.DIHEDRAL>
-18.2673

>  <SCORE.INTRA.DIHEDRAL.0>
34.5115

>  <SCORE.INTRA.POLAR>
0

>  <SCORE.INTRA.POLAR.0>
0

>  <SCORE.INTRA.REPUL>
0

>  <SCORE.INTRA.REPUL.0>
0

>  <SCORE.INTRA.SOLV>
2.45317

>  <SCORE.INTRA.SOLV.lig_0>
-122.812

>  <SCORE.INTRA.VDW>
1.83548

>  <SCORE.INTRA.VDW.0>
-7.46208

>  <SCORE.INTRA.norm>
-0.12391

>  <SCORE.RESTR>
0.000878013

>  <SCORE.RESTR.CAVITY>
0.000878013

>  <SCORE.RESTR.norm>
1.79186e-05

>  <SCORE.SYSTEM>
0

>  <SCORE.SYSTEM.CONST>
0

>  <SCORE.SYSTEM.DIHEDRAL>
0

>  <SCORE.SYSTEM.SOLV>
0

>  <SCORE.SYSTEM.norm>
0

>  <SCORE.heavy>
49

>  <SCORE.norm>
-0.132439

>  <RMSD>
3.644

$$$$
ligand
 OpenBabel11021811513D
libRbt.so/2013.1/901 2013/11/27
 49 52  0  0  0  0  0  0  0  0999 V2000
   27.3324   11.4855    1.6255 C   0  0  2  0  0  0  0  0  0  0  0  0
   28.4916   11.1319    2.3206 O   0  0  0  0  0  0  0  0  0  0  0  0
   26.1200   11.5734    2.6253 C   0  0  2  0  0  0  0  0  0  0  0  0
   26.4314   12.6065    3.6968 N   0  0  0  0  0  0  0  0  0  0  0  0
   34.0854    9.0699   -0.8090 O   0  0  0  0  0  0  0  0  0  0  0  0
   25.8316   10.1863    3.2455 C   0  0  2  0  0  0  0  0  0  0  0  0
   36.4331   14.0977   -1.3806 N   0  0  0  0  0  0  0  0  0  0  0  0
   25.5397    9.1560    2.1434 C   0  0  2  0  0  0  0  0  0  0  0  0
   26.7415    9.0406    1.1129 C   0  0  2  0  0  0  0  0  0  0  0  0
   27.0250   10.4414    0.5672 O   0  0  0  0  0  0  0  0  0  0  0  0
   26.4161    8.0368   -0.0309 C   0  0  0  0  0  0  0  0  0  0  0  0
   26.1300    6.7231    0.4233 N   0  0  0  0  0  0  0  0  0  0  0  0
   32.6464   10.6248    1.1875 C   0  0  2  0  0  0  0  0  0  0  0  0
   34.0178   10.9721    0.7125 N   0  0  0  0  0  0  0  0  0  0  0  0
   31.6098   11.3328    0.1871 C   0  0  0  0  0  0  0  0  0  0  0  0
   30.1292   10.9965    0.6029 C   0  0  2  0  0  0  0  0  0  0  0  0
   29.1692   11.6562   -0.2944 N   0  0  0  0  0  0  0  0  0  0  0  0
   29.8558   11.4794    2.0414 C   0  0  2  0  0  0  0  0  0  0  0  0
   30.8652   10.8025    3.0542 C   0  0  2  0  0  0  0  0  0  0  0  0
   30.5182   11.3201    4.3925 O   0  0  0  0  0  0  0  0  0  0  0  0
   32.3697   11.2156    2.6452 C   0  0  1  0  0  0  0  0  0  0  0  0
   33.2412   10.6173    3.5519 O   0  0  0  0  0  0  0  0  0  0  0  0
   29.5434   10.9364    5.1444 C   0  0  1  0  0  0  0  0  0  0  0  0
   29.4307    9.4003    5.3728 C   0  0  2  0  0  0  0  0  0  0  0  0
   28.5985    8.8760    4.3866 O   0  0  0  0  0  0  0  0  0  0  0  0
   28.7684    9.4222    6.6876 C   0  0  1  0  0  0  0  0  0  0  0  0
   29.3874   10.5841    7.5244 C   0  0  2  0  0  0  0  0  0  0  0  0
   29.5334   11.5225    6.4869 O   0  0  0  0  0  0  0  0  0  0  0  0
   30.6139   10.2806    8.3861 C   0  0  0  0  0  0  0  0  0  0  0  0
   31.0545   11.5234    8.8999 O   0  0  0  0  0  0  0  0  0  0  0  0
   26.4294    9.3020    7.4213 C   0  0  2  0  0  0  0  0  0  0  0  0
   27.3058    9.6139    6.4222 O   0  0  0  0  0  0  0  0  0  0  0  0
   25.0030    9.5146    7.0074 C   0  0  1  0  0  0  0  0  0  0  0  0
   27.4918   10.3486   11.7526 N   0  0  0  0  0  0  0  0  0  0  0  0
   36.8182    9.5285   -1.3783 O   0  0  0  0  0  0  0  0  0  0  0  0
   24.0511    9.1852    8.2221 C   0  0  2  0  0  0  0  0  0  0  0  0
   24.3618   10.0231    9.5105 C   0  0  1  0  0  0  0  0  0  0  0  0
   25.7351    9.7948    9.8944 C   0  0  1  0  0  0  0  0  0  0  0  0
   26.6720   10.1043    8.7422 O   0  0  0  0  0  0  0  0  0  0  0  0
   26.1083   10.6618   11.1758 C   0  0  0  0  0  0  0  0  0  0  0  0
   24.8008   10.8619    6.6465 N   0  0  0  0  0  0  0  0  0  0  0  0
   24.9236   10.2676    3.9349 O   0  0  0  0  0  0  0  0  0  0  0  0
   35.9201   11.6060   -1.5719 C   0  0  0  0  0  0  0  0  0  0  0  0
   24.2258   11.1350    9.2600 O   0  0  0  0  0  0  0  0  0  0  0  0
   24.1984    8.0794    8.5028 O   0  0  0  0  0  0  0  0  0  0  0  0
   34.6283   10.0699   -0.3181 C   0  0  0  0  0  0  0  0  0  0  0  0
   36.3397   12.7534   -0.9368 C   0  0  0  0  0  0  0  0  0  0  0  0
   36.1021   10.5826   -0.7384 C   0  0  1  0  0  0  0  0  0  0  0  0
   24.3864    9.5302    1.4311 F   0  0  0  0  0  0  0  0  0  0  0  0
  1  2  1  1  0  0  0
  1 10  1  0  0  0  0
  1  3  1  0  0  0  0
  3  4  1  1  0  0  0
  3  6  1  0  0  0  0
  5 46  2  0  0  0  0
  6 42  1  1  0  0  0
  6  8  1  0  0  0  0
  7 47  1  0  0  0  0
  8  9  1  0  0  0  0
  8 49  1  6  0  0  0
  9 10  1  0  0  0  0
  9 11  1  6  0  0  0
 11 12  1  0  0  0  0
 13 14  1  6  0  0  0
 13 15  1  0  0  0  0
 13 21  1  0  0  0  0
 14 46  1  0  0  0  0
 15 16  1  0  0  0  0
 16 17  1  6  0  0  0
 16 18  1  0  0  0  0
 18  2  1  1  0  0  0
 18 19  1  0  0  0  0
 19 20  1  1  0  0  0
 19 21  1  0  0  0  0
 21 22  1  1  0  0  0
 23 20  1  1  0  0  0
 23 24  1  0  0  0  0
 23 28  1  0  0  0  0
 24 25  1  6  0  0  0
 24 26  1  0  0  0  0
 26 27  1  0  0  0  0
 26 32  1  6  0  0  0
 27 28  1  0  0  0  0
 27 29  1  6  0  0  0
 29 30  1  0  0  0  0
 31 32  1  6  0  0  0
 31 33  1  0  0  0  0
 31 39  1  0  0  0  0
 33 36  1  0  0  0  0
 33 41  1  1  0  0  0
 34 40  1  0  0  0  0
 35 48  1  0  0  0  0
 36 37  1  0  0  0  0
 36 45  1  1  0  0  0
 37 38  1  0  0  0  0
 37 44  1  6  0  0  0
 38 39  1  0  0  0  0
 38 40  1  1  0  0  0
 43 47  1  0  0  0  0
 46 48  1  0  0  0  0
 48 43  1  6  0  0  0
M  END
>  <CHROM.1>
-149.50649273,-56.61943461,-58.81215392,-87.81521377,78.67448001,50.56526029
162.08254259,173.22832092,-178.78184811,172.81929215,176.32587284,-129.03990856
-18.75120198,29.02156344,10.40136779,3.92077421,0.76762967,-0.19388064,-1.63872996

>  <Name>
ligand

>  <RI>
0

>  <Rbt.Current_Directory>
/home/itssahil/PROJECTS/Mol_Feturizer/New_Systems/rnas/4PDQ

>  <Rbt.Executable>
rbdock ($Id: //depot/dev/client3/rdock/2013.1/src/exe/rbdock.cxx#4 $)

>  <Rbt.Library>
libRbt.so (2013.1, Build901 2013/11/27)

>  <Rbt.Parameter_File>
/export/apps/rDock/src/rDock_2013.1_src/data/scripts/dock_solv.prm

>  <Rbt.Receptor>
prm/pocket_docking_3.prm

>  <SCORE>
-9.05417

>  <SCORE.INTER>
0.0364631

>  <SCORE.INTER.CONST>
1

>  <SCORE.INTER.POLAR>
0

>  <SCORE.INTER.ROT>
13

>  <SCORE.INTER.SOLV>
23.1031

>  <SCORE.INTER.VDW>
-19.9434

>  <SCORE.INTER.norm>
0.000744146

>  <SCORE.INTRA>
-9.1063

>  <SCORE.INTRA.DIHEDRAL>
-20.2331

>  <SCORE.INTRA.DIHEDRAL.0>
34.5115

>  <SCORE.INTRA.POLAR>
0

>  <SCORE.INTRA.POLAR.0>
0

>  <SCORE.INTRA.REPUL>
0

>  <SCORE.INTRA.REPUL.0>
0

>  <SCORE.INTRA.SOLV>
0.735625

>  <SCORE.INTRA.SOLV.lig_0>
-122.812

>  <SCORE.INTRA.VDW>
0.642416

>  <SCORE.INTRA.VDW.0>
-7.46208

>  <SCORE.INTRA.norm>
-0.185843

>  <SCORE.RESTR>
0.0156698

>  <SCORE.RESTR.CAVITY>
0.0156698

>  <SCORE.RESTR.norm>
0.000319791

>  <SCORE.SYSTEM>
0

>  <SCORE.SYSTEM.CONST>
0

>  <SCORE.SYSTEM.DIHEDRAL>
0

>  <SCORE.SYSTEM.SOLV>
0

>  <SCORE.SYSTEM.norm>
0

>  <SCORE.heavy>
49

>  <SCORE.norm>
-0.184779

>  <RMSD>
3.649

$$$$
ligand
 OpenBabel11021811513D
libRbt.so/2013.1/901 2013/11/27
 49 52  0  0  0  0  0  0  0  0999 V2000
   27.7561    9.6115    0.1405 C   0  0  2  0  0  0  0  0  0  0  0  0
   28.8859    9.6969    0.9579 O   0  0  0  0  0  0  0  0  0  0  0  0
   26.9326   10.9497    0.2313 C   0  0  2  0  0  0  0  0  0  0  0  0
   27.8154   12.1087   -0.2044 N   0  0  0  0  0  0  0  0  0  0  0  0
   35.7384   10.0009    1.0984 O   0  0  0  0  0  0  0  0  0  0  0  0
   26.3977   11.1566    1.6676 C   0  0  2  0  0  0  0  0  0  0  0  0
   39.6004   10.8619   -0.4979 N   0  0  0  0  0  0  0  0  0  0  0  0
   25.5257    9.9646    2.0923 C   0  0  2  0  0  0  0  0  0  0  0  0
   26.3229    8.5944    2.0117 C   0  0  2  0  0  0  0  0  0  0  0  0
   26.8769    8.4591    0.5921 O   0  0  0  0  0  0  0  0  0  0  0  0
   25.4178    7.3863    2.3895 C   0  0  0  0  0  0  0  0  0  0  0  0
   26.0962    6.1397    2.3904 N   0  0  0  0  0  0  0  0  0  0  0  0
   33.0456   10.6764    0.2225 C   0  0  2  0  0  0  0  0  0  0  0  0
   34.2491   11.4821   -0.1371 N   0  0  0  0  0  0  0  0  0  0  0  0
   31.9285   10.9794   -0.8896 C   0  0  0  0  0  0  0  0  0  0  0  0
   30.6249   10.1460   -0.5992 C   0  0  2  0  0  0  0  0  0  0  0  0
   29.5861   10.4303   -1.6003 N   0  0  0  0  0  0  0  0  0  0  0  0
   30.0639   10.5000    0.7925 C   0  0  2  0  0  0  0  0  0  0  0  0
   31.1436   10.2165    1.9136 C   0  0  2  0  0  0  0  0  0  0  0  0
   30.5115   10.5774    3.1979 O   0  0  0  0  0  0  0  0  0  0  0  0
   32.4420   11.1303    1.6297 C   0  0  1  0  0  0  0  0  0  0  0  0
   33.3761   10.8724    2.6301 O   0  0  0  0  0  0  0  0  0  0  0  0
   30.3850    9.8269    4.2389 C   0  0  1  0  0  0  0  0  0  0  0  0
   31.7135    9.2993    4.8564 C   0  0  2  0  0  0  0  0  0  0  0  0
   32.0072    8.0719    4.2674 O   0  0  0  0  0  0  0  0  0  0  0  0
   31.2598    9.1396    6.2481 C   0  0  1  0  0  0  0  0  0  0  0  0
   30.3224   10.3374    6.5943 C   0  0  2  0  0  0  0  0  0  0  0  0
   29.6629   10.4400    5.3562 O   0  0  0  0  0  0  0  0  0  0  0  0
   30.9529   11.6057    7.1711 C   0  0  0  0  0  0  0  0  0  0  0  0
   31.7868   12.1308    6.1554 O   0  0  0  0  0  0  0  0  0  0  0  0
   29.9973    7.4520    7.5058 C   0  0  2  0  0  0  0  0  0  0  0  0
   30.5594    7.8163    6.3163 O   0  0  0  0  0  0  0  0  0  0  0  0
   29.4249    6.0660    7.4583 C   0  0  1  0  0  0  0  0  0  0  0  0
   25.9363    9.2147    8.7066 N   0  0  0  0  0  0  0  0  0  0  0  0
   36.2920   13.3065   -0.2382 O   0  0  0  0  0  0  0  0  0  0  0  0
   28.7491    5.7313    8.8444 C   0  0  2  0  0  0  0  0  0  0  0  0
   27.6359    6.7526    9.2649 C   0  0  1  0  0  0  0  0  0  0  0  0
   28.2124    8.0758    9.3130 C   0  0  1  0  0  0  0  0  0  0  0  0
   28.8699    8.4221    7.9905 O   0  0  0  0  0  0  0  0  0  0  0  0
   27.1052    9.1537    9.6940 C   0  0  0  0  0  0  0  0  0  0  0  0
   28.4345    5.9867    6.4587 N   0  0  0  0  0  0  0  0  0  0  0  0
   25.7705   12.1116    1.6979 O   0  0  0  0  0  0  0  0  0  0  0  0
   37.7077   11.9072    0.8561 C   0  0  0  0  0  0  0  0  0  0  0  0
   26.8102    6.7356    8.4677 O   0  0  0  0  0  0  0  0  0  0  0  0
   29.5611    5.7731    9.6581 O   0  0  0  0  0  0  0  0  0  0  0  0
   35.5682   11.0069    0.3950 C   0  0  0  0  0  0  0  0  0  0  0  0
   38.5997   10.9183    0.5061 C   0  0  0  0  0  0  0  0  0  0  0  0
   36.7709   11.9716   -0.0891 C   0  0  1  0  0  0  0  0  0  0  0  0
   24.4032    9.8684    1.2507 F   0  0  0  0  0  0  0  0  0  0  0  0
  1  2  1  1  0  0  0
  1 10  1  0  0  0  0
  1  3  1  0  0  0  0
  3  4  1  1  0  0  0
  3  6  1  0  0  0  0
  5 46  2  0  0  0  0
  6 42  1  6  0  0  0
  6  8  1  0  0  0  0
  7 47  1  0  0  0  0
  8  9  1  0  0  0  0
  8 49  1  6  0  0  0
  9 10  1  0  0  0  0
  9 11  1  6  0  0  0
 11 12  1  0  0  0  0
 13 14  1  6  0  0  0
 13 15  1  0  0  0  0
 13 21  1  0  0  0  0
 14 46  1  0  0  0  0
 15 16  1  0  0  0  0
 16 17  1  6  0  0  0
 16 18  1  0  0  0  0
 18  2  1  1  0  0  0
 18 19  1  0  0  0  0
 19 20  1  1  0  0  0
 19 21  1  0  0  0  0
 21 22  1  1  0  0  0
 23 20  1  6  0  0  0
 23 24  1  0  0  0  0
 23 28  1  0  0  0  0
 24 25  1  6  0  0  0
 24 26  1  0  0  0  0
 26 27  1  0  0  0  0
 26 32  1  6  0  0  0
 27 28  1  0  0  0  0
 27 29  1  6  0  0  0
 29 30  1  0  0  0  0
 31 32  1  6  0  0  0
 31 33  1  0  0  0  0
 31 39  1  0  0  0  0
 33 36  1  0  0  0  0
 33 41  1  6  0  0  0
 34 40  1  0  0  0  0
 35 48  1  0  0  0  0
 36 37  1  0  0  0  0
 36 45  1  1  0  0  0
 37 38  1  0  0  0  0
 37 44  1  6  0  0  0
 38 39  1  0  0  0  0
 38 40  1  6  0  0  0
 43 47  1  0  0  0  0
 46 48  1  0  0  0  0
 48 43  1  1  0  0  0
M  END
>  <CHROM.1>
-69.79275863,-55.67934700,-177.41542763,-157.09020535,125.08501059,59.59159278
-177.66262597,64.75152273,-175.62610792,-59.77280002,72.76223725,-147.93355122
-149.79361854,30.26888509,9.61760860,3.46203286,0.77742572,-0.13901889,-1.23465459

>  <Name>
ligand

>  <RI>
0

>  <Rbt.Current_Directory>
/home/itssahil/PROJECTS/Mol_Feturizer/New_Systems/rnas/4PDQ

>  <Rbt.Executable>
rbdock ($Id: //depot/dev/client3/rdock/2013.1/src/exe/rbdock.cxx#4 $)

>  <Rbt.Library>
libRbt.so (2013.1, Build901 2013/11/27)

>  <Rbt.Parameter_File>
/export/apps/rDock/src/rDock_2013.1_src/data/scripts/dock_solv.prm

>  <Rbt.Receptor>
prm/pocket_docking_4.prm

>  <SCORE>
-7.48944

>  <SCORE.INTER>
-1.97866

>  <SCORE.INTER.CONST>
1

>  <SCORE.INTER.POLAR>
0

>  <SCORE.INTER.ROT>
13

>  <SCORE.INTER.SOLV>
17.8525

>  <SCORE.INTER.VDW>
-19.5366

>  <SCORE.INTER.norm>
-0.0403808

>  <SCORE.INTRA>
-5.52391

>  <SCORE.INTRA.DIHEDRAL>
-21.1686

>  <SCORE.INTRA.DIHEDRAL.0>
34.5115

>  <SCORE.INTRA.POLAR>
0

>  <SCORE.INTRA.POLAR.0>
0

>  <SCORE.INTRA.REPUL>
0

>  <SCORE.INTRA.REPUL.0>
0

>  <SCORE.INTRA.SOLV>
3.16983

>  <SCORE.INTRA.SOLV.lig_0>
-122.812

>  <SCORE.INTRA.VDW>
3.47546

>  <SCORE.INTRA.VDW.0>
-7.46208

>  <SCORE.INTRA.norm>
-0.112733

>  <SCORE.RESTR>
0.0131286

>  <SCORE.RESTR.CAVITY>
0.0131286

>  <SCORE.RESTR.norm>
0.000267931

>  <SCORE.SYSTEM>
0

>  <SCORE.SYSTEM.CONST>
0

>  <SCORE.SYSTEM.DIHEDRAL>
0

>  <SCORE.SYSTEM.SOLV>
0

>  <SCORE.SYSTEM.norm>
0

>  <SCORE.heavy>
49

>  <SCORE.norm>
-0.152846

>  <RMSD>
3.770

$$$$
ligand
 OpenBabel11021811513D
libRbt.so/2013.1/901 2013/11/27
 49 52  0  0  0  0  0  0  0  0999 V2000
   27.6202    8.9197    3.4557 C   0  0  2  0  0  0  0  0  0  0  0  0
   28.6780    8.1610    2.9484 O   0  0  0  0  0  0  0  0  0  0  0  0
   26.3104    8.0477    3.4908 C   0  0  2  0  0  0  0  0  0  0  0  0
   26.5497    6.8237    4.3609 N   0  0  0  0  0  0  0  0  0  0  0  0
   34.6806    5.9700    1.6986 O   0  0  0  0  0  0  0  0  0  0  0  0
   25.8911    7.6476    2.0570 C   0  0  2  0  0  0  0  0  0  0  0  0
   38.3861   10.3935    0.5190 N   0  0  0  0  0  0  0  0  0  0  0  0
   25.6746    8.8994    1.1923 C   0  0  2  0  0  0  0  0  0  0  0  0
   26.9760    9.8065    1.1345 C   0  0  2  0  0  0  0  0  0  0  0  0
   27.3829   10.1318    2.5729 O   0  0  0  0  0  0  0  0  0  0  0  0
   26.7321   11.0993    0.3033 C   0  0  0  0  0  0  0  0  0  0  0  0
   25.7369   11.9519    0.8479 N   0  0  0  0  0  0  0  0  0  0  0  0
   33.0010    7.8724    3.1250 C   0  0  2  0  0  0  0  0  0  0  0  0
   34.4336    8.1313    2.7965 N   0  0  0  0  0  0  0  0  0  0  0  0
   32.2279    7.6774    1.7319 C   0  0  0  0  0  0  0  0  0  0  0  0
   30.7046    7.3735    1.9877 C   0  0  2  0  0  0  0  0  0  0  0  0
   29.9809    7.2127    0.7179 N   0  0  0  0  0  0  0  0  0  0  0  0
   30.0535    8.5306    2.7713 C   0  0  2  0  0  0  0  0  0  0  0  0
   30.7960    8.7525    4.1505 C   0  0  2  0  0  0  0  0  0  0  0  0
   30.0980    9.8668    4.8218 O   0  0  0  0  0  0  0  0  0  0  0  0
   32.3375    9.1263    3.8584 C   0  0  1  0  0  0  0  0  0  0  0  0
   32.9709    9.3252    5.0827 O   0  0  0  0  0  0  0  0  0  0  0  0
   29.7634    9.9366    6.0652 C   0  0  1  0  0  0  0  0  0  0  0  0
   30.9041    9.6585    7.0881 C   0  0  2  0  0  0  0  0  0  0  0  0
   30.9000    8.2969    7.3813 O   0  0  0  0  0  0  0  0  0  0  0  0
   30.3898   10.4580    8.2124 C   0  0  1  0  0  0  0  0  0  0  0  0
   29.7693   11.7672    7.6342 C   0  0  2  0  0  0  0  0  0  0  0  0
   29.1872   11.2189    6.4770 O   0  0  0  0  0  0  0  0  0  0  0  0
   30.6791   12.9846    7.4638 C   0  0  0  0  0  0  0  0  0  0  0  0
   31.1886   13.2816    8.7502 O   0  0  0  0  0  0  0  0  0  0  0  0
   28.7222   10.1368    9.9843 C   0  0  2  0  0  0  0  0  0  0  0  0
   29.3824    9.6004    8.9166 O   0  0  0  0  0  0  0  0  0  0  0  0
   27.8967    9.1147   10.7088 C   0  0  1  0  0  0  0  0  0  0  0  0
   25.1624   12.8028    9.1195 N   0  0  0  0  0  0  0  0  0  0  0  0
   37.3552    6.4629    1.0202 O   0  0  0  0  0  0  0  0  0  0  0  0
   27.1241    9.8116   11.8952 C   0  0  2  0  0  0  0  0  0  0  0  0
   26.2141   11.0044   11.4391 C   0  0  1  0  0  0  0  0  0  0  0  0
   27.0315   11.9781   10.7541 C   0  0  1  0  0  0  0  0  0  0  0  0
   27.7862   11.3323    9.6075 O   0  0  0  0  0  0  0  0  0  0  0  0
   26.1395   13.1890   10.2336 C   0  0  0  0  0  0  0  0  0  0  0  0
   26.9428    8.5566    9.8341 N   0  0  0  0  0  0  0  0  0  0  0  0
   24.9174    7.0510    2.1060 O   0  0  0  0  0  0  0  0  0  0  0  0
   36.6396    8.6181    1.0721 C   0  0  0  0  0  0  0  0  0  0  0  0
   25.4270   10.5996   10.7082 O   0  0  0  0  0  0  0  0  0  0  0  0
   27.9020   10.2477   12.6218 O   0  0  0  0  0  0  0  0  0  0  0  0
   35.1676    7.0506    2.0603 C   0  0  0  0  0  0  0  0  0  0  0  0
   37.8937    9.1866    1.0791 C   0  0  0  0  0  0  0  0  0  0  0  0
   36.6968    7.4832    1.7678 C   0  0  1  0  0  0  0  0  0  0  0  0
   24.6256    9.6718    1.7218 F   0  0  0  0  0  0  0  0  0  0  0  0
  1  2  1  6  0  0  0
  1 10  1  0  0  0  0
  1  3  1  0  0  0  0
  3  4  1  1  0  0  0
  3  6  1  0  0  0  0
  5 46  2  0  0  0  0
  6 42  1  1  0  0  0
  6  8  1  0  0  0  0
  7 47  1  0  0  0  0
  8  9  1  0  0  0  0
  8 49  1  1  0  0  0
  9 10  1  0  0  0  0
  9 11  1  6  0  0  0
 11 12  1  0  0  0  0
 13 14  1  6  0  0  0
 13 15  1  0  0  0  0
 13 21  1  0  0  0  0
 14 46  1  0  0  0  0
 15 16  1  0  0  0  0
 16 17  1  6  0  0  0
 16 18  1  0  0  0  0
 18  2  1  1  0  0  0
 18 19  1  0  0  0  0
 19 20  1  6  0  0  0
 19 21  1  0  0  0  0
 21 22  1  1  0  0  0
 23 20  1  6  0  0  0
 23 24  1  0  0  0  0
 23 28  1  0  0  0  0
 24 25  1  1  0  0  0
 24 26  1  0  0  0  0
 26 27  1  0  0  0  0
 26 32  1  6  0  0  0
 27 28  1  0  0  0  0
 27 29  1  6  0  0  0
 29 30  1  0  0  0  0
 31 32  1  6  0  0  0
 31 33  1  0  0  0  0
 31 39  1  0  0  0  0
 33 36  1  0  0  0  0
 33 41  1  6  0  0  0
 34 40  1  0  0  0  0
 35 48  1  0  0  0  0
 36 37  1  0  0  0  0
 36 45  1  1  0  0  0
 37 38  1  0  0  0  0
 37 44  1  6  0  0  0
 38 39  1  0  0  0  0
 38 40  1  6  0  0  0
 43 47  1  0  0  0  0
 46 48  1  0  0  0  0
 48 43  1  6  0  0  0
M  END
>  <CHROM.1>
-178.16695534,-171.93034489,62.47901448,-61.23522238,136.68501127,51.94169085
-177.96331826,-58.93992952,-171.80663874,-67.51529258,-178.80899725,-74.82884105
1.46331983,29.74351841,9.46370096,5.13611154,2.28824509,-0.07309463,1.30061725

>  <Name>
ligand

>  <RI>
0

>  <Rbt.Current_Directory>
/home/itssahil/PROJECTS/Mol_Feturizer/New_Systems/rnas/4PDQ

>  <Rbt.Executable>
rbdock ($Id: //depot/dev/client3/rdock/2013.1/src/exe/rbdock.cxx#4 $)

>  <Rbt.Library>
libRbt.so (2013.1, Build901 2013/11/27)

>  <Rbt.Parameter_File>
/export/apps/rDock/src/rDock_2013.1_src/data/scripts/dock_solv.prm

>  <Rbt.Receptor>
prm/pocket_docking_5.prm

>  <SCORE>
-14.8272

>  <SCORE.INTER>
-3.9799

>  <SCORE.INTER.CONST>
1

>  <SCORE.INTER.POLAR>
0

>  <SCORE.INTER.ROT>
13

>  <SCORE.INTER.SOLV>
14.4738

>  <SCORE.INTER.VDW>
-19.7445

>  <SCORE.INTER.norm>
-0.0812225

>  <SCORE.INTRA>
-10.8473

>  <SCORE.INTRA.DIHEDRAL>
-25.7415

>  <SCORE.INTRA.DIHEDRAL.0>
34.5115

>  <SCORE.INTRA.POLAR>
0

>  <SCORE.INTRA.POLAR.0>
0

>  <SCORE.INTRA.REPUL>
0

>  <SCORE.INTRA.REPUL.0>
0

>  <SCORE.INTRA.SOLV>
-1.50631

>  <SCORE.INTRA.SOLV.lig_0>
-122.812

>  <SCORE.INTRA.VDW>
2.77664

>  <SCORE.INTRA.VDW.0>
-7.46208

>  <SCORE.INTRA.norm>
-0.221373

>  <SCORE.RESTR>
0

>  <SCORE.RESTR.CAVITY>
0

>  <SCORE.RESTR.norm>
0

>  <SCORE.SYSTEM>
0

>  <SCORE.SYSTEM.CONST>
0

>  <SCORE.SYSTEM.DIHEDRAL>
0

>  <SCORE.SYSTEM.SOLV>
0

>  <SCORE.SYSTEM.norm>
0

>  <SCORE.heavy>
49

>  <SCORE.norm>
-0.302596

>  <RMSD>
3.772

$$$$
ligand
 OpenBabel11021811513D
libRbt.so/2013.1/901 2013/11/27
 49 52  0  0  0  0  0  0  0  0999 V2000
   28.2028   11.1852    1.5062 C   0  0  2  0  0  0  0  0  0  0  0  0
   29.4684   10.7634    1.9211 O   0  0  0  0  0  0  0  0  0  0  0  0
   27.2551   11.3282    2.7546 C   0  0  2  0  0  0  0  0  0  0  0  0
   27.8569   12.3329    3.7247 N   0  0  0  0  0  0  0  0  0  0  0  0
   34.4663   10.7688   -2.2484 O   0  0  0  0  0  0  0  0  0  0  0  0
   27.0399    9.9527    3.4280 C   0  0  2  0  0  0  0  0  0  0  0  0
   39.4300   13.0522   -1.6269 N   0  0  0  0  0  0  0  0  0  0  0  0
   26.4503    8.9501    2.4238 C   0  0  2  0  0  0  0  0  0  0  0  0
   27.3792    8.7804    1.1478 C   0  0  2  0  0  0  0  0  0  0  0  0
   27.6073   10.1692    0.5481 O   0  0  0  0  0  0  0  0  0  0  0  0
   26.7491    7.8064    0.1106 C   0  0  0  0  0  0  0  0  0  0  0  0
   26.5460    6.4926    0.6073 N   0  0  0  0  0  0  0  0  0  0  0  0
   33.5626   10.9873    0.5103 C   0  0  2  0  0  0  0  0  0  0  0  0
   34.8409   11.5800    0.0187 N   0  0  0  0  0  0  0  0  0  0  0  0
   32.3753   11.6756   -0.3222 C   0  0  0  0  0  0  0  0  0  0  0  0
   30.9833   11.0869    0.1182 C   0  0  2  0  0  0  0  0  0  0  0  0
   29.8854   11.7244   -0.6234 N   0  0  0  0  0  0  0  0  0  0  0  0
   30.7535   11.3288    1.6235 C   0  0  2  0  0  0  0  0  0  0  0  0
   31.9108   10.6655    2.4741 C   0  0  2  0  0  0  0  0  0  0  0  0
   31.5966   10.9448    3.8893 O   0  0  0  0  0  0  0  0  0  0  0  0
   33.3170   11.3320    2.0503 C   0  0  1  0  0  0  0  0  0  0  0  0
   34.3203   10.7414    2.8146 O   0  0  0  0  0  0  0  0  0  0  0  0
   30.7091   10.3580    4.6179 C   0  0  1  0  0  0  0  0  0  0  0  0
   31.2070    9.1229    5.4247 C   0  0  2  0  0  0  0  0  0  0  0  0
   31.0106    7.9872    4.6427 O   0  0  0  0  0  0  0  0  0  0  0  0
   30.2470    9.1878    6.5393 C   0  0  1  0  0  0  0  0  0  0  0  0
   30.0308   10.6881    6.9078 C   0  0  2  0  0  0  0  0  0  0  0  0
   30.0554   11.2197    5.6057 O   0  0  0  0  0  0  0  0  0  0  0  0
   30.9564   11.3172    7.9501 C   0  0  0  0  0  0  0  0  0  0  0  0
   30.8521   10.5127    9.1096 O   0  0  0  0  0  0  0  0  0  0  0  0
   27.9120    8.5190    6.8914 C   0  0  2  0  0  0  0  0  0  0  0  0
   28.9933    8.5222    6.0582 O   0  0  0  0  0  0  0  0  0  0  0  0
   28.1969    7.8101    8.1827 C   0  0  1  0  0  0  0  0  0  0  0  0
   22.8263    7.3576    7.0754 N   0  0  0  0  0  0  0  0  0  0  0  0
   36.5345   13.4639   -1.4469 O   0  0  0  0  0  0  0  0  0  0  0  0
   26.8937    7.7998    9.0725 C   0  0  2  0  0  0  0  0  0  0  0  0
   25.6556    7.1447    8.3678 C   0  0  1  0  0  0  0  0  0  0  0  0
   25.3954    7.8491    7.1342 C   0  0  1  0  0  0  0  0  0  0  0  0
   26.6346    7.8736    6.2597 O   0  0  0  0  0  0  0  0  0  0  0  0
   24.1706    7.1887    6.3618 C   0  0  0  0  0  0  0  0  0  0  0  0
   28.5634    6.4731    7.9288 N   0  0  0  0  0  0  0  0  0  0  0  0
   26.3176   10.0759    4.3052 O   0  0  0  0  0  0  0  0  0  0  0  0
   37.5164   11.4406   -1.1276 C   0  0  0  0  0  0  0  0  0  0  0  0
   25.9138    6.0529    8.1250 O   0  0  0  0  0  0  0  0  0  0  0  0
   26.6066    8.8903    9.2997 O   0  0  0  0  0  0  0  0  0  0  0  0
   35.1701   11.3780   -1.4303 C   0  0  0  0  0  0  0  0  0  0  0  0
   38.7407   11.8121   -1.6365 C   0  0  0  0  0  0  0  0  0  0  0  0
   36.5721   12.0857   -1.8112 C   0  0  1  0  0  0  0  0  0  0  0  0
   25.1877    9.3923    1.9906 F   0  0  0  0  0  0  0  0  0  0  0  0
  1  2  1  1  0  0  0
  1 10  1  0  0  0  0
  1  3  1  0  0  0  0
  3  4  1  1  0  0  0
  3  6  1  0  0  0  0
  5 46  2  0  0  0  0
  6 42  1  1  0  0  0
  6  8  1  0  0  0  0
  7 47  1  0  0  0  0
  8  9  1  0  0  0  0
  8 49  1  6  0  0  0
  9 10  1  0  0  0  0
  9 11  1  6  0  0  0
 11 12  1  0  0  0  0
 13 14  1  6  0  0  0
 13 15  1  0  0  0  0
 13 21  1  0  0  0  0
 14 46  1  0  0  0  0
 15 16  1  0  0  0  0
 16 17  1  6  0  0  0
 16 18  1  0  0  0  0
 18  2  1  1  0  0  0
 18 19  1  0  0  0  0
 19 20  1  1  0  0  0
 19 21  1  0  0  0  0
 21 22  1  1  0  0  0
 23 20  1  1  0  0  0
 23 24  1  0  0  0  0
 23 28  1  0  0  0  0
 24 25  1  6  0  0  0
 24 26  1  0  0  0  0
 26 27  1  0  0  0  0
 26 32  1  6  0  0  0
 27 28  1  0  0  0  0
 27 29  1  1  0  0  0
 29 30  1  0  0  0  0
 31 32  1  6  0  0  0
 31 33  1  0  0  0  0
 31 39  1  0  0  0  0
 33 36  1  0  0  0  0
 33 41  1  6  0  0  0
 34 40  1  0  0  0  0
 35 48  1  0  0  0  0
 36 37  1  0  0  0  0
 36 45  1  6  0  0  0
 37 38  1  0  0  0  0
 37 44  1  6  0  0  0
 38 39  1  0  0  0  0
 38 40  1  6  0  0  0
 43 47  1  0  0  0  0
 46 48  1  0  0  0  0
 48 43  1  1  0  0  0
M  END
>  <CHROM.1>
-128.53433651,-67.92599798,-60.91322044,-60.99068608,76.59896781,91.39163317
-176.35933748,-55.80970526,-60.66959112,67.51009803,66.62781235,-73.44800104
124.22191520,29.98418992,9.89448173,3.43264765,0.70295828,-0.27713649,-1.42593312

>  <Name>
ligand

>  <RI>
0

>  <Rbt.Current_Directory>
/home/itssahil/PROJECTS/Mol_Feturizer/New_Systems/rnas/4PDQ

>  <Rbt.Executable>
rbdock ($Id: //depot/dev/client3/rdock/2013.1/src/exe/rbdock.cxx#4 $)

>  <Rbt.Library>
libRbt.so (2013.1, Build901 2013/11/27)

>  <Rbt.Parameter_File>
/export/apps/rDock/src/rDock_2013.1_src/data/scripts/dock_solv.prm

>  <Rbt.Receptor>
prm/pocket_docking_5.prm

>  <SCORE>
-6.07869

>  <SCORE.INTER>
1.42064

>  <SCORE.INTER.CONST>
1

>  <SCORE.INTER.POLAR>
0

>  <SCORE.INTER.ROT>
13

>  <SCORE.INTER.SOLV>
19.6346

>  <SCORE.INTER.VDW>
-17.8644

>  <SCORE.INTER.norm>
0.0289927

>  <SCORE.INTRA>
-7.49933

>  <SCORE.INTRA.DIHEDRAL>
-20.2255

>  <SCORE.INTRA.DIHEDRAL.0>
34.5115

>  <SCORE.INTRA.POLAR>
0

>  <SCORE.INTRA.POLAR.0>
0

>  <SCORE.INTRA.REPUL>
0

>  <SCORE.INTRA.REPUL.0>
0

>  <SCORE.INTRA.SOLV>
1.52598

>  <SCORE.INTRA.SOLV.lig_0>
-122.812

>  <SCORE.INTRA.VDW>
1.8504

>  <SCORE.INTRA.VDW.0>
-7.46208

>  <SCORE.INTRA.norm>
-0.153048

>  <SCORE.RESTR>
0

>  <SCORE.RESTR.CAVITY>
0

>  <SCORE.RESTR.norm>
0

>  <SCORE.SYSTEM>
0

>  <SCORE.SYSTEM.CONST>
0

>  <SCORE.SYSTEM.DIHEDRAL>
0

>  <SCORE.SYSTEM.SOLV>
0

>  <SCORE.SYSTEM.norm>
0

>  <SCORE.heavy>
49

>  <SCORE.norm>
-0.124055

>  <RMSD>
3.779

$$$$
ligand
 OpenBabel11021811513D
libRbt.so/2013.1/901 2013/11/27
 49 52  0  0  0  0  0  0  0  0999 V2000
   27.4311   10.3572   -0.6126 C   0  0  2  0  0  0  0  0  0  0  0  0
   28.1639   10.9595    0.4131 O   0  0  0  0  0  0  0  0  0  0  0  0
   26.2678   11.3151   -1.0671 C   0  0  2  0  0  0  0  0  0  0  0  0
   26.8630   12.6310   -1.5431 N   0  0  0  0  0  0  0  0  0  0  0  0
   32.8564    5.9074    0.6823 O   0  0  0  0  0  0  0  0  0  0  0  0
   25.2672   11.5348    0.0915 C   0  0  2  0  0  0  0  0  0  0  0  0
   36.2850    6.9078   -0.7696 N   0  0  0  0  0  0  0  0  0  0  0  0
   24.6948   10.1906    0.5681 C   0  0  2  0  0  0  0  0  0  0  0  0
   25.8406    9.1955    1.0336 C   0  0  2  0  0  0  0  0  0  0  0  0
   26.8321    9.0512   -0.1224 O   0  0  0  0  0  0  0  0  0  0  0  0
   25.2581    7.8175    1.4622 C   0  0  0  0  0  0  0  0  0  0  0  0
   24.4279    7.8784    2.6116 N   0  0  0  0  0  0  0  0  0  0  0  0
   31.6652    8.5176    1.1750 C   0  0  2  0  0  0  0  0  0  0  0  0
   33.0332    8.1418    1.6384 N   0  0  0  0  0  0  0  0  0  0  0  0
   31.8004    9.9152    0.3974 C   0  0  0  0  0  0  0  0  0  0  0  0
   30.3984   10.3764   -0.1502 C   0  0  2  0  0  0  0  0  0  0  0  0
   30.5056   11.6663   -0.8476 N   0  0  0  0  0  0  0  0  0  0  0  0
   29.3980   10.5374    1.0119 C   0  0  2  0  0  0  0  0  0  0  0  0
   29.2445    9.1762    1.8034 C   0  0  2  0  0  0  0  0  0  0  0  0
   28.2684    9.4318    2.8810 O   0  0  0  0  0  0  0  0  0  0  0  0
   30.6805    8.7603    2.4087 C   0  0  1  0  0  0  0  0  0  0  0  0
   30.5228    7.5658    3.1072 O   0  0  0  0  0  0  0  0  0  0  0  0
   28.3657   10.3043    3.8256 C   0  0  1  0  0  0  0  0  0  0  0  0
   28.2023   11.7907    3.3914 C   0  0  2  0  0  0  0  0  0  0  0  0
   29.4644   12.2931    3.0841 O   0  0  0  0  0  0  0  0  0  0  0  0
   27.6951   12.3355    4.6618 C   0  0  1  0  0  0  0  0  0  0  0  0
   26.7177   11.2904    5.2831 C   0  0  2  0  0  0  0  0  0  0  0  0
   27.4206   10.1243    4.9301 O   0  0  0  0  0  0  0  0  0  0  0  0
   25.2380   11.3704    4.9052 C   0  0  0  0  0  0  0  0  0  0  0  0
   25.1400   10.8793    3.5815 O   0  0  0  0  0  0  0  0  0  0  0  0
   28.7985   13.5572    6.4820 C   0  0  2  0  0  0  0  0  0  0  0  0
   28.8950   12.5908    5.5227 O   0  0  0  0  0  0  0  0  0  0  0  0
   29.8911   13.4482    7.5046 C   0  0  1  0  0  0  0  0  0  0  0  0
   25.5381   13.1620    9.6460 N   0  0  0  0  0  0  0  0  0  0  0  0
   34.9604    6.2188    3.2606 O   0  0  0  0  0  0  0  0  0  0  0  0
   29.6890   14.5594    8.6066 C   0  0  2  0  0  0  0  0  0  0  0  0
   28.2907   14.4979    9.3134 C   0  0  1  0  0  0  0  0  0  0  0  0
   27.2571   14.6145    8.3116 C   0  0  1  0  0  0  0  0  0  0  0  0
   27.4293   13.5561    7.2386 O   0  0  0  0  0  0  0  0  0  0  0  0
   25.8167   14.5129    8.9808 C   0  0  0  0  0  0  0  0  0  0  0  0
   29.8363   12.1900    8.1373 N   0  0  0  0  0  0  0  0  0  0  0  0
   24.4124   12.1991   -0.2750 O   0  0  0  0  0  0  0  0  0  0  0  0
   35.4873    5.4707    1.1815 C   0  0  0  0  0  0  0  0  0  0  0  0
   28.1923   13.4787    9.8321 O   0  0  0  0  0  0  0  0  0  0  0  0
   29.7565   15.5875    8.0951 O   0  0  0  0  0  0  0  0  0  0  0  0
   33.5047    6.7567    1.3101 C   0  0  0  0  0  0  0  0  0  0  0  0
   36.4021    5.9509    0.2712 C   0  0  0  0  0  0  0  0  0  0  0  0
   35.0019    6.5066    1.8646 C   0  0  1  0  0  0  0  0  0  0  0  0
   23.9795    9.5774   -0.4757 F   0  0  0  0  0  0  0  0  0  0  0  0
  1  2  1  1  0  0  0
  1 10  1  0  0  0  0
  1  3  1  0  0  0  0
  3  4  1  1  0  0  0
  3  6  1  0  0  0  0
  5 46  2  0  0  0  0
  6 42  1  6  0  0  0
  6  8  1  0  0  0  0
  7 47  1  0  0  0  0
  8  9  1  0  0  0  0
  8 49  1  6  0  0  0
  9 10  1  0  0  0  0
  9 11  1  6  0  0  0
 11 12  1  0  0  0  0
 13 14  1  1  0  0  0
 13 15  1  0  0  0  0
 13 21  1  0  0  0  0
 14 46  1  0  0  0  0
 15 16  1  0  0  0  0
 16 17  1  1  0  0  0
 16 18  1  0  0  0  0
 18  2  1  6  0  0  0
 18 19  1  0  0  0  0
 19 20  1  1  0  0  0
 19 21  1  0  0  0  0
 21 22  1  6  0  0  0
 23 20  1  6  0  0  0
 23 24  1  0  0  0  0
 23 28  1  0  0  0  0
 24 25  1  1  0  0  0
 24 26  1  0  0  0  0
 26 27  1  0  0  0  0
 26 32  1  1  0  0  0
 27 28  1  0  0  0  0
 27 29  1  6  0  0  0
 29 30  1  0  0  0  0
 31 32  1  6  0  0  0
 31 33  1  0  0  0  0
 31 39  1  0  0  0  0
 33 36  1  0  0  0  0
 33 41  1  1  0  0  0
 34 40  1  0  0  0  0
 35 48  1  0  0  0  0
 36 37  1  0  0  0  0
 36 45  1  6  0  0  0
 37 38  1  0  0  0  0
 37 44  1  6  0  0  0
 38 39  1  0  0  0  0
 38 40  1  1  0  0  0
 43 47  1  0  0  0  0
 46 48  1  0  0  0  0
 48 43  1  6  0  0  0
M  END
>  <CHROM.1>
-171.33130248,54.73005490,-65.03256081,-129.23573859,-59.25705202,71.36135535
153.74890684,74.29021053,163.73365170,-63.37526138,-57.20049151,-134.84901366
-101.36242415,28.87531377,10.53711470,3.15485221,0.97632507,0.35606374,-2.06781912

>  <Name>
ligand

>  <RI>
0

>  <Rbt.Current_Directory>
/home/itssahil/PROJECTS/Mol_Feturizer/New_Systems/rnas/4PDQ

>  <Rbt.Executable>
rbdock ($Id: //depot/dev/client3/rdock/2013.1/src/exe/rbdock.cxx#4 $)

>  <Rbt.Library>
libRbt.so (2013.1, Build901 2013/11/27)

>  <Rbt.Parameter_File>
/export/apps/rDock/src/rDock_2013.1_src/data/scripts/dock_solv.prm

>  <Rbt.Receptor>
prm/pocket_docking_6.prm

>  <SCORE>
-16.7993

>  <SCORE.INTER>
-8.70777

>  <SCORE.INTER.CONST>
1

>  <SCORE.INTER.POLAR>
0

>  <SCORE.INTER.ROT>
13

>  <SCORE.INTER.SOLV>
24.4323

>  <SCORE.INTER.VDW>
-26.2159

>  <SCORE.INTER.norm>
-0.17771

>  <SCORE.INTRA>
-8.09151

>  <SCORE.INTRA.DIHEDRAL>
-21.641

>  <SCORE.INTRA.DIHEDRAL.0>
34.5115

>  <SCORE.INTRA.POLAR>
0

>  <SCORE.INTRA.POLAR.0>
0

>  <SCORE.INTRA.REPUL>
0.000321754

>  <SCORE.INTRA.REPUL.0>
0

>  <SCORE.INTRA.SOLV>
2.94126

>  <SCORE.INTRA.SOLV.lig_0>
-122.812

>  <SCORE.INTRA.VDW>
1.25676

>  <SCORE.INTRA.VDW.0>
-7.46208

>  <SCORE.INTRA.norm>
-0.165133

>  <SCORE.RESTR>
0

>  <SCORE.RESTR.CAVITY>
0

>  <SCORE.RESTR.norm>
0

>  <SCORE.SYSTEM>
0

>  <SCORE.SYSTEM.CONST>
0

>  <SCORE.SYSTEM.DIHEDRAL>
0

>  <SCORE.SYSTEM.SOLV>
0

>  <SCORE.SYSTEM.norm>
0

>  <SCORE.heavy>
49

>  <SCORE.norm>
-0.342842

>  <RMSD>
3.819

$$$$
ligand
 OpenBabel11021811513D
libRbt.so/2013.1/901 2013/11/27
 49 52  0  0  0  0  0  0  0  0999 V2000
   28.7823   10.5884    0.5616 C   0  0  2  0  0  0  0  0  0  0  0  0
   29.6428   11.6853    0.6542 O   0  0  0  0  0  0  0  0  0  0  0  0
   27.5299   10.9685   -0.3125 C   0  0  2  0  0  0  0  0  0  0  0  0
   27.9978   11.3931   -1.6957 N   0  0  0  0  0  0  0  0  0  0  0  0
   35.2835   12.6967    0.5070 O   0  0  0  0  0  0  0  0  0  0  0  0
   26.7126   12.0871    0.3748 C   0  0  2  0  0  0  0  0  0  0  0  0
   40.2400   10.6387   -0.3527 N   0  0  0  0  0  0  0  0  0  0  0  0
   26.2683   11.6426    1.7772 C   0  0  2  0  0  0  0  0  0  0  0  0
   27.5065   11.2487    2.6891 C   0  0  2  0  0  0  0  0  0  0  0  0
   28.3125   10.1813    1.9466 O   0  0  0  0  0  0  0  0  0  0  0  0
   27.0460   10.7469    4.0883 C   0  0  0  0  0  0  0  0  0  0  0  0
   26.1752    9.6275    4.0379 N   0  0  0  0  0  0  0  0  0  0  0  0
   33.7293   10.2365    0.5896 C   0  0  2  0  0  0  0  0  0  0  0  0
   35.2197   10.2607    0.5172 N   0  0  0  0  0  0  0  0  0  0  0  0
   33.1870   11.1967   -0.5767 C   0  0  0  0  0  0  0  0  0  0  0  0
   31.6128   11.2108   -0.5883 C   0  0  2  0  0  0  0  0  0  0  0  0
   31.1036   12.1031   -1.6401 N   0  0  0  0  0  0  0  0  0  0  0  0
   31.0733   11.7062    0.7683 C   0  0  2  0  0  0  0  0  0  0  0  0
   31.5936   10.7822    1.9423 C   0  0  2  0  0  0  0  0  0  0  0  0
   31.0199   11.3316    3.1867 O   0  0  0  0  0  0  0  0  0  0  0  0
   33.2053   10.8371    1.9736 C   0  0  1  0  0  0  0  0  0  0  0  0
   33.6428   10.0249    3.0170 O   0  0  0  0  0  0  0  0  0  0  0  0
   30.6309   10.6676    4.2214 C   0  0  1  0  0  0  0  0  0  0  0  0
   31.7336    9.8428    4.9483 C   0  0  2  0  0  0  0  0  0  0  0  0
   31.7522    8.5641    4.3965 O   0  0  0  0  0  0  0  0  0  0  0  0
   31.1514    9.8427    6.3007 C   0  0  1  0  0  0  0  0  0  0  0  0
   30.5225   11.2466    6.5593 C   0  0  2  0  0  0  0  0  0  0  0  0
   30.0048   11.4745    5.2714 O   0  0  0  0  0  0  0  0  0  0  0  0
   31.4070   12.3332    7.1723 C   0  0  0  0  0  0  0  0  0  0  0  0
   30.5634   13.4449    7.4075 O   0  0  0  0  0  0  0  0  0  0  0  0
   29.6265    8.3688    7.5359 C   0  0  2  0  0  0  0  0  0  0  0  0
   30.1373    8.7394    6.3254 O   0  0  0  0  0  0  0  0  0  0  0  0
   28.6720    7.2173    7.4169 C   0  0  1  0  0  0  0  0  0  0  0  0
   27.2087   10.2427   11.7674 N   0  0  0  0  0  0  0  0  0  0  0  0
   37.9226   10.4751    1.3367 O   0  0  0  0  0  0  0  0  0  0  0  0
   28.0833    6.8764    8.8407 C   0  0  2  0  0  0  0  0  0  0  0  0
   27.3705    8.0889    9.5338 C   0  0  1  0  0  0  0  0  0  0  0  0
   28.3105    9.1795    9.6458 C   0  0  1  0  0  0  0  0  0  0  0  0
   28.8921    9.5269    8.2886 O   0  0  0  0  0  0  0  0  0  0  0  0
   27.6155   10.4502   10.3058 C   0  0  0  0  0  0  0  0  0  0  0  0
   27.5989    7.5652    6.5720 N   0  0  0  0  0  0  0  0  0  0  0  0
   25.7886   12.3163   -0.2577 O   0  0  0  0  0  0  0  0  0  0  0  0
   37.7815   11.1179   -0.8374 C   0  0  0  0  0  0  0  0  0  0  0  0
   26.4941    8.4202    8.8707 O   0  0  0  0  0  0  0  0  0  0  0  0
   28.9557    6.5700    9.5250 O   0  0  0  0  0  0  0  0  0  0  0  0
   35.8758   11.6086    0.4772 C   0  0  0  0  0  0  0  0  0  0  0  0
   39.1413   11.2532   -1.0071 C   0  0  0  0  0  0  0  0  0  0  0  0
   37.4845   11.4693    0.4131 C   0  0  1  0  0  0  0  0  0  0  0  0
   25.4228   10.5233    1.6794 F   0  0  0  0  0  0  0  0  0  0  0  0
  1  2  1  1  0  0  0
  1 10  1  0  0  0  0
  1  3  1  0  0  0  0
  3  4  1  6  0  0  0
  3  6  1  0  0  0  0
  5 46  2  0  0  0  0
  6 42  1  6  0  0  0
  6  8  1  0  0  0  0
  7 47  1  0  0  0  0
  8  9  1  0  0  0  0
  8 49  1  6  0  0  0
  9 10  1  0  0  0  0
  9 11  1  1  0  0  0
 11 12  1  0  0  0  0
 13 14  1  1  0  0  0
 13 15  1  0  0  0  0
 13 21  1  0  0  0  0
 14 46  1  0  0  0  0
 15 16  1  0  0  0  0
 16 17  1  6  0  0  0
 16 18  1  0  0  0  0
 18  2  1  6  0  0  0
 18 19  1  0  0  0  0
 19 20  1  1  0  0  0
 19 21  1  0  0  0  0
 21 22  1  1  0  0  0
 23 20  1  6  0  0  0
 23 24  1  0  0  0  0
 23 28  1  0  0  0  0
 24 25  1  6  0  0  0
 24 26  1  0  0  0  0
 26 27  1  0  0  0  0
 26 32  1  6  0  0  0
 27 28  1  0  0  0  0
 27 29  1  6  0  0  0
 29 30  1  0  0  0  0
 31 32  1  6  0  0  0
 31 33  1  0  0  0  0
 31 39  1  0  0  0  0
 33 36  1  0  0  0  0
 33 41  1  6  0  0  0
 34 40  1  0  0  0  0
 35 48  1  0  0  0  0
 36 37  1  0  0  0  0
 36 45  1  1  0  0  0
 37 38  1  0  0  0  0
 37 44  1  6  0  0  0
 38 39  1  0  0  0  0
 38 40  1  6  0  0  0
 43 47  1  0  0  0  0
 46 48  1  0  0  0  0
 48 43  1  6  0  0  0
M  END
>  <CHROM.1>
-148.21632662,68.96239007,58.00921820,50.55738472,145.04235959,61.81214283
168.29112076,-174.79648689,-177.47802462,66.41165981,60.25073814,-72.63102782
135.12446477,30.63593254,10.42312916,3.61487495,0.82657503,0.02326235,-1.29913044

>  <Name>
ligand

>  <RI>
0

>  <Rbt.Current_Directory>
/home/itssahil/PROJECTS/Mol_Feturizer/New_Systems/rnas/4PDQ

>  <Rbt.Executable>
rbdock ($Id: //depot/dev/client3/rdock/2013.1/src/exe/rbdock.cxx#4 $)

>  <Rbt.Library>
libRbt.so (2013.1, Build901 2013/11/27)

>  <Rbt.Parameter_File>
/export/apps/rDock/src/rDock_2013.1_src/data/scripts/dock_solv.prm

>  <Rbt.Receptor>
prm/pocket_docking_5.prm

>  <SCORE>
-8.3635

>  <SCORE.INTER>
-0.702408

>  <SCORE.INTER.CONST>
1

>  <SCORE.INTER.POLAR>
0

>  <SCORE.INTER.ROT>
13

>  <SCORE.INTER.SOLV>
20.0021

>  <SCORE.INTER.VDW>
-19.4023

>  <SCORE.INTER.norm>
-0.0143348

>  <SCORE.INTRA>
-7.6611

>  <SCORE.INTRA.DIHEDRAL>
-22.9543

>  <SCORE.INTRA.DIHEDRAL.0>
34.5115

>  <SCORE.INTRA.POLAR>
0

>  <SCORE.INTRA.POLAR.0>
0

>  <SCORE.INTRA.REPUL>
0

>  <SCORE.INTRA.REPUL.0>
0

>  <SCORE.INTRA.SOLV>
3.21639

>  <SCORE.INTRA.SOLV.lig_0>
-122.812

>  <SCORE.INTRA.VDW>
2.20784

>  <SCORE.INTRA.VDW.0>
-7.46208

>  <SCORE.INTRA.norm>
-0.156349

>  <SCORE.RESTR>
0

>  <SCORE.RESTR.CAVITY>
0

>  <SCORE.RESTR.norm>
0

>  <SCORE.SYSTEM>
0

>  <SCORE.SYSTEM.CONST>
0

>  <SCORE.SYSTEM.DIHEDRAL>
0

>  <SCORE.SYSTEM.SOLV>
0

>  <SCORE.SYSTEM.norm>
0

>  <SCORE.heavy>
49

>  <SCORE.norm>
-0.170684

>  <RMSD>
3.832

$$$$
ligand
 OpenBabel11021811513D
libRbt.so/2013.1/901 2013/11/27
 49 52  0  0  0  0  0  0  0  0999 V2000
   27.7829    9.3814    3.8196 C   0  0  2  0  0  0  0  0  0  0  0  0
   28.7689    8.5942    3.2196 O   0  0  0  0  0  0  0  0  0  0  0  0
   26.4359    8.5718    3.9044 C   0  0  2  0  0  0  0  0  0  0  0  0
   26.6663    7.3042    4.7123 N   0  0  0  0  0  0  0  0  0  0  0  0
   34.6475    5.9982    1.8876 O   0  0  0  0  0  0  0  0  0  0  0  0
   25.9110    8.2493    2.4859 C   0  0  2  0  0  0  0  0  0  0  0  0
   38.4703   10.2395    0.4512 N   0  0  0  0  0  0  0  0  0  0  0  0
   25.7050    9.5433    1.6829 C   0  0  2  0  0  0  0  0  0  0  0  0
   27.0440   10.3892    1.5772 C   0  0  2  0  0  0  0  0  0  0  0  0
   27.5531   10.6375    2.9983 O   0  0  0  0  0  0  0  0  0  0  0  0
   26.8149   11.7241    0.8110 C   0  0  0  0  0  0  0  0  0  0  0  0
   26.3569   11.5495   -0.5208 N   0  0  0  0  0  0  0  0  0  0  0  0
   33.0690    8.0357    3.2410 C   0  0  2  0  0  0  0  0  0  0  0  0
   34.5042    8.2209    2.8762 N   0  0  0  0  0  0  0  0  0  0  0  0
   32.2430    7.9481    1.8675 C   0  0  0  0  0  0  0  0  0  0  0  0
   30.7123    7.7267    2.1609 C   0  0  2  0  0  0  0  0  0  0  0  0
   29.9416    7.6650    0.9102 N   0  0  0  0  0  0  0  0  0  0  0  0
   30.1586    8.8867    3.0123 C   0  0  2  0  0  0  0  0  0  0  0  0
   30.9553    9.0035    4.3742 C   0  0  2  0  0  0  0  0  0  0  0  0
   30.3487   10.1284    5.1133 O   0  0  0  0  0  0  0  0  0  0  0  0
   32.5074    9.2950    4.0468 C   0  0  1  0  0  0  0  0  0  0  0  0
   33.1891    9.4022    5.2566 O   0  0  0  0  0  0  0  0  0  0  0  0
   29.8984   10.1105    6.3215 C   0  0  1  0  0  0  0  0  0  0  0  0
   30.9217    9.6907    7.4175 C   0  0  2  0  0  0  0  0  0  0  0  0
   30.8321    8.3112    7.5878 O   0  0  0  0  0  0  0  0  0  0  0  0
   30.3349   10.4180    8.5553 C   0  0  1  0  0  0  0  0  0  0  0  0
   29.8289   11.8005    8.0395 C   0  0  2  0  0  0  0  0  0  0  0  0
   29.3393   11.3810    6.7894 O   0  0  0  0  0  0  0  0  0  0  0  0
   30.8012   12.9808    8.0625 C   0  0  0  0  0  0  0  0  0  0  0  0
   31.8999   12.6048    7.2536 O   0  0  0  0  0  0  0  0  0  0  0  0
   28.5842    9.9673   10.2151 C   0  0  2  0  0  0  0  0  0  0  0  0
   29.2288    9.5561    9.0843 O   0  0  0  0  0  0  0  0  0  0  0  0
   27.8485    8.8444   10.8852 C   0  0  1  0  0  0  0  0  0  0  0  0
   26.5523   14.0270   10.1590 N   0  0  0  0  0  0  0  0  0  0  0  0
   37.3339    6.3391    1.1648 O   0  0  0  0  0  0  0  0  0  0  0  0
   27.0876    9.3993   12.1513 C   0  0  2  0  0  0  0  0  0  0  0  0
   26.0935   10.5676   11.8263 C   0  0  1  0  0  0  0  0  0  0  0  0
   26.8255   11.6387   11.1920 C   0  0  1  0  0  0  0  0  0  0  0  0
   27.5673   11.1306    9.9702 O   0  0  0  0  0  0  0  0  0  0  0  0
   25.8455   12.8312   10.8036 C   0  0  0  0  0  0  0  0  0  0  0  0
   26.8923    8.3002   10.0043 N   0  0  0  0  0  0  0  0  0  0  0  0
   24.9136    7.6981    2.5737 O   0  0  0  0  0  0  0  0  0  0  0  0
   36.6940    8.5167    1.0717 C   0  0  0  0  0  0  0  0  0  0  0  0
   25.3010   10.1748   11.0948 O   0  0  0  0  0  0  0  0  0  0  0  0
   27.8690    9.8230   12.8815 O   0  0  0  0  0  0  0  0  0  0  0  0
   35.1823    7.0758    2.1849 C   0  0  0  0  0  0  0  0  0  0  0  0
   37.9421    9.0973    1.1063 C   0  0  0  0  0  0  0  0  0  0  0  0
   36.7215    7.4323    1.8454 C   0  0  1  0  0  0  0  0  0  0  0  0
   24.7298   10.3429    2.3049 F   0  0  0  0  0  0  0  0  0  0  0  0
  1  2  1  6  0  0  0
  1 10  1  0  0  0  0
  1  3  1  0  0  0  0
  3  4  1  1  0  0  0
  3  6  1  0  0  0  0
  5 46  2  0  0  0  0
  6 42  1  1  0  0  0
  6  8  1  0  0  0  0
  7 47  1  0  0  0  0
  8  9  1  0  0  0  0
  8 49  1  1  0  0  0
  9 10  1  0  0  0  0
  9 11  1  1  0  0  0
 11 12  1  0  0  0  0
 13 14  1  6  0  0  0
 13 15  1  0  0  0  0
 13 21  1  0  0  0  0
 14 46  1  0  0  0  0
 15 16  1  0  0  0  0
 16 17  1  6  0  0  0
 16 18  1  0  0  0  0
 18  2  1  1  0  0  0
 18 19  1  0  0  0  0
 19 20  1  1  0  0  0
 19 21  1  0  0  0  0
 21 22  1  1  0  0  0
 23 20  1  6  0  0  0
 23 24  1  0  0  0  0
 23 28  1  0  0  0  0
 24 25  1  1  0  0  0
 24 26  1  0  0  0  0
 26 27  1  0  0  0  0
 26 32  1  6  0  0  0
 27 28  1  0  0  0  0
 27 29  1  6  0  0  0
 29 30  1  0  0  0  0
 31 32  1  6  0  0  0
 31 33  1  0  0  0  0
 31 39  1  0  0  0  0
 33 36  1  0  0  0  0
 33 41  1  6  0  0  0
 34 40  1  0  0  0  0
 35 48  1  0  0  0  0
 36 37  1  0  0  0  0
 36 45  1  1  0  0  0
 37 38  1  0  0  0  0
 37 44  1  6  0  0  0
 38 39  1  0  0  0  0
 38 40  1  6  0  0  0
 43 47  1  0  0  0  0
 46 48  1  0  0  0  0
 48 43  1  6  0  0  0
M  END
>  <CHROM.1>
-175.75571717,-173.53979034,-60.20028752,-66.80114831,126.96159713,57.73305077
175.24457637,59.39705388,-160.92508795,178.39078784,178.37817726,-79.35202886
0.29313474,29.82290767,9.57246499,5.36031086,2.29539633,-0.12782054,1.39489117

>  <Name>
ligand

>  <RI>
0

>  <Rbt.Current_Directory>
/home/itssahil/PROJECTS/Mol_Feturizer/New_Systems/rnas/4PDQ

>  <Rbt.Executable>
rbdock ($Id: //depot/dev/client3/rdock/2013.1/src/exe/rbdock.cxx#4 $)

>  <Rbt.Library>
libRbt.so (2013.1, Build901 2013/11/27)

>  <Rbt.Parameter_File>
/export/apps/rDock/src/rDock_2013.1_src/data/scripts/dock_solv.prm

>  <Rbt.Receptor>
prm/pocket_docking_5.prm

>  <SCORE>
-17.0346

>  <SCORE.INTER>
-5.25179

>  <SCORE.INTER.CONST>
1

>  <SCORE.INTER.POLAR>
0

>  <SCORE.INTER.ROT>
13

>  <SCORE.INTER.SOLV>
14.031

>  <SCORE.INTER.VDW>
-20.4449

>  <SCORE.INTER.norm>
-0.107179

>  <SCORE.INTRA>
-11.7828

>  <SCORE.INTRA.DIHEDRAL>
-23.3243

>  <SCORE.INTRA.DIHEDRAL.0>
34.5115

>  <SCORE.INTRA.POLAR>
0

>  <SCORE.INTRA.POLAR.0>
0

>  <SCORE.INTRA.REPUL>
0.00664108

>  <SCORE.INTRA.REPUL.0>
0

>  <SCORE.INTRA.SOLV>
-4.20732

>  <SCORE.INTRA.SOLV.lig_0>
-122.812

>  <SCORE.INTRA.VDW>
1.94977

>  <SCORE.INTRA.VDW.0>
-7.46208

>  <SCORE.INTRA.norm>
-0.240466

>  <SCORE.RESTR>
0

>  <SCORE.RESTR.CAVITY>
0

>  <SCORE.RESTR.norm>
0

>  <SCORE.SYSTEM>
0

>  <SCORE.SYSTEM.CONST>
0

>  <SCORE.SYSTEM.DIHEDRAL>
0

>  <SCORE.SYSTEM.SOLV>
0

>  <SCORE.SYSTEM.norm>
0

>  <SCORE.heavy>
49

>  <SCORE.norm>
-0.347646

>  <RMSD>
3.874

$$$$
ligand
 OpenBabel11021811513D
libRbt.so/2013.1/901 2013/11/27
 49 52  0  0  0  0  0  0  0  0999 V2000
   27.5849    7.9484    1.4138 C   0  0  2  0  0  0  0  0  0  0  0  0
   28.6430    8.5036    0.6898 O   0  0  0  0  0  0  0  0  0  0  0  0
   26.4806    7.4241    0.4224 C   0  0  2  0  0  0  0  0  0  0  0  0
   27.0938    6.3838   -0.5018 N   0  0  0  0  0  0  0  0  0  0  0  0
   34.8110   10.2608   -0.9602 O   0  0  0  0  0  0  0  0  0  0  0  0
   25.8720    8.6001   -0.3766 C   0  0  2  0  0  0  0  0  0  0  0  0
   36.3568   14.0632   -1.5324 N   0  0  0  0  0  0  0  0  0  0  0  0
   25.2769    9.6467    0.5785 C   0  0  2  0  0  0  0  0  0  0  0  0
   26.3626   10.1983    1.5967 C   0  0  2  0  0  0  0  0  0  0  0  0
   26.9733    8.9987    2.3235 O   0  0  0  0  0  0  0  0  0  0  0  0
   25.7403   11.2159    2.5961 C   0  0  0  0  0  0  0  0  0  0  0  0
   26.7001   11.9285    3.3609 N   0  0  0  0  0  0  0  0  0  0  0  0
   32.8746    9.3870    1.0302 C   0  0  2  0  0  0  0  0  0  0  0  0
   34.1248   10.1258    1.3741 N   0  0  0  0  0  0  0  0  0  0  0  0
   31.8727   10.4466    0.3595 C   0  0  0  0  0  0  0  0  0  0  0  0
   30.5287    9.7419   -0.0592 C   0  0  2  0  0  0  0  0  0  0  0  0
   29.5940   10.7068   -0.6568 N   0  0  0  0  0  0  0  0  0  0  0  0
   29.8497    9.1119    1.1733 C   0  0  2  0  0  0  0  0  0  0  0  0
   30.8141    8.0636    1.8618 C   0  0  2  0  0  0  0  0  0  0  0  0
   30.0744    7.5166    3.0163 O   0  0  0  0  0  0  0  0  0  0  0  0
   32.1542    8.8235    2.3394 C   0  0  1  0  0  0  0  0  0  0  0  0
   32.9853    7.8869    2.9490 O   0  0  0  0  0  0  0  0  0  0  0  0
   29.7634    8.1366    4.1034 C   0  0  1  0  0  0  0  0  0  0  0  0
   30.4510    7.6143    5.3991 C   0  0  2  0  0  0  0  0  0  0  0  0
   29.6272    6.6446    5.9656 O   0  0  0  0  0  0  0  0  0  0  0  0
   30.4324    8.8647    6.1763 C   0  0  1  0  0  0  0  0  0  0  0  0
   30.7410   10.0455    5.2048 C   0  0  2  0  0  0  0  0  0  0  0  0
   30.0261    9.5776    4.0874 O   0  0  0  0  0  0  0  0  0  0  0  0
   32.2018   10.4477    4.9967 C   0  0  0  0  0  0  0  0  0  0  0  0
   32.1835   11.5852    4.1550 O   0  0  0  0  0  0  0  0  0  0  0  0
   28.8349    9.9815    7.6676 C   0  0  2  0  0  0  0  0  0  0  0  0
   29.0693    8.9610    6.7917 O   0  0  0  0  0  0  0  0  0  0  0  0
   27.4595    9.9094    8.2629 C   0  0  1  0  0  0  0  0  0  0  0  0
   28.8332   15.1921    8.0904 N   0  0  0  0  0  0  0  0  0  0  0  0
   37.2416   10.3977    1.3708 O   0  0  0  0  0  0  0  0  0  0  0  0
   27.2394   11.1427    9.2224 C   0  0  2  0  0  0  0  0  0  0  0  0
   27.4435   12.5302    8.5210 C   0  0  1  0  0  0  0  0  0  0  0  0
   28.7755   12.5794    7.9653 C   0  0  1  0  0  0  0  0  0  0  0  0
   29.0130   11.4025    7.0381 O   0  0  0  0  0  0  0  0  0  0  0  0
   29.0123   13.9566    7.2036 C   0  0  0  0  0  0  0  0  0  0  0  0
   26.4884    9.9701    7.2433 N   0  0  0  0  0  0  0  0  0  0  0  0
   25.0464    8.2000   -1.0582 O   0  0  0  0  0  0  0  0  0  0  0  0
   36.8683   11.8870   -0.3033 C   0  0  0  0  0  0  0  0  0  0  0  0
   26.6812   12.6193    7.6675 O   0  0  0  0  0  0  0  0  0  0  0  0
   28.0168   11.0818   10.0680 O   0  0  0  0  0  0  0  0  0  0  0  0
   35.0249   10.5042    0.2359 C   0  0  0  0  0  0  0  0  0  0  0  0
   36.2119   13.0774   -0.5224 C   0  0  0  0  0  0  0  0  0  0  0  0
   36.3242   11.3061    0.7653 C   0  0  1  0  0  0  0  0  0  0  0  0
   24.2292    9.0755    1.3223 F   0  0  0  0  0  0  0  0  0  0  0  0
  1  2  1  6  0  0  0
  1 10  1  0  0  0  0
  1  3  1  0  0  0  0
  3  4  1  6  0  0  0
  3  6  1  0  0  0  0
  5 46  2  0  0  0  0
  6 42  1  6  0  0  0
  6  8  1  0  0  0  0
  7 47  1  0  0  0  0
  8  9  1  0  0  0  0
  8 49  1  1  0  0  0
  9 10  1  0  0  0  0
  9 11  1  1  0  0  0
 11 12  1  0  0  0  0
 13 14  1  1  0  0  0
 13 15  1  0  0  0  0
 13 21  1  0  0  0  0
 14 46  1  0  0  0  0
 15 16  1  0  0  0  0
 16 17  1  1  0  0  0
 16 18  1  0  0  0  0
 18  2  1  6  0  0  0
 18 19  1  0  0  0  0
 19 20  1  1  0  0  0
 19 21  1  0  0  0  0
 21 22  1  6  0  0  0
 23 20  1  6  0  0  0
 23 24  1  0  0  0  0
 23 28  1  0  0  0  0
 24 25  1  1  0  0  0
 24 26  1  0  0  0  0
 26 27  1  0  0  0  0
 26 32  1  6  0  0  0
 27 28  1  0  0  0  0
 27 29  1  6  0  0  0
 29 30  1  0  0  0  0
 31 32  1  6  0  0  0
 31 33  1  0  0  0  0
 31 39  1  0  0  0  0
 33 36  1  0  0  0  0
 33 41  1  6  0  0  0
 34 40  1  0  0  0  0
 35 48  1  0  0  0  0
 36 37  1  0  0  0  0
 36 45  1  1  0  0  0
 37 38  1  0  0  0  0
 37 44  1  6  0  0  0
 38 39  1  0  0  0  0
 38 40  1  6  0  0  0
 43 47  1  0  0  0  0
 46 48  1  0  0  0  0
 48 43  1  6  0  0  0
M  END
>  <CHROM.1>
179.24041331,-171.04764148,-168.74309664,-73.54508451,-69.57096770,-114.00628157
174.17805887,-176.05006217,-176.74688227,58.72131587,-178.00734900,-156.48249327
-105.36955092,29.88650778,10.06050018,3.28544678,2.46337440,0.27443875,1.24966733

>  <Name>
ligand

>  <RI>
0

>  <Rbt.Current_Directory>
/home/itssahil/PROJECTS/Mol_Feturizer/New_Systems/rnas/4PDQ

>  <Rbt.Executable>
rbdock ($Id: //depot/dev/client3/rdock/2013.1/src/exe/rbdock.cxx#4 $)

>  <Rbt.Library>
libRbt.so (2013.1, Build901 2013/11/27)

>  <Rbt.Parameter_File>
/export/apps/rDock/src/rDock_2013.1_src/data/scripts/dock_solv.prm

>  <Rbt.Receptor>
prm/pocket_docking_4.prm

>  <SCORE>
-7.41446

>  <SCORE.INTER>
3.33213

>  <SCORE.INTER.CONST>
1

>  <SCORE.INTER.POLAR>
0

>  <SCORE.INTER.ROT>
13

>  <SCORE.INTER.SOLV>
22.782

>  <SCORE.INTER.VDW>
-17.6393

>  <SCORE.INTER.norm>
0.0680027

>  <SCORE.INTRA>
-10.786

>  <SCORE.INTRA.DIHEDRAL>
-22.9726

>  <SCORE.INTRA.DIHEDRAL.0>
34.5115

>  <SCORE.INTRA.POLAR>
0

>  <SCORE.INTRA.POLAR.0>
0

>  <SCORE.INTRA.REPUL>
0.0378352

>  <SCORE.INTRA.REPUL.0>
0

>  <SCORE.INTRA.SOLV>
-2.9789

>  <SCORE.INTRA.SOLV.lig_0>
-122.812

>  <SCORE.INTRA.VDW>
2.00059

>  <SCORE.INTRA.VDW.0>
-7.46208

>  <SCORE.INTRA.norm>
-0.220122

>  <SCORE.RESTR>
0.0393883

>  <SCORE.RESTR.CAVITY>
0.0393883

>  <SCORE.RESTR.norm>
0.000803842

>  <SCORE.SYSTEM>
0

>  <SCORE.SYSTEM.CONST>
0

>  <SCORE.SYSTEM.DIHEDRAL>
0

>  <SCORE.SYSTEM.SOLV>
0

>  <SCORE.SYSTEM.norm>
0

>  <SCORE.heavy>
49

>  <SCORE.norm>
-0.151316

>  <RMSD>
3.953

$$$$
ligand
 OpenBabel11021811513D
libRbt.so/2013.1/901 2013/11/27
 49 52  0  0  0  0  0  0  0  0999 V2000
   27.6481    9.4754    0.0461 C   0  0  2  0  0  0  0  0  0  0  0  0
   28.4100   10.2140    0.9550 O   0  0  0  0  0  0  0  0  0  0  0  0
   26.4698   10.3626   -0.5031 C   0  0  2  0  0  0  0  0  0  0  0  0
   27.0476   11.5976   -1.1764 N   0  0  0  0  0  0  0  0  0  0  0  0
   34.2743    7.2466   -0.8783 O   0  0  0  0  0  0  0  0  0  0  0  0
   25.5037   10.7444    0.6427 C   0  0  2  0  0  0  0  0  0  0  0  0
   38.9023    8.7572   -0.6696 N   0  0  0  0  0  0  0  0  0  0  0  0
   24.9488    9.4814    1.3198 C   0  0  2  0  0  0  0  0  0  0  0  0
   26.1101    8.5590    1.8857 C   0  0  2  0  0  0  0  0  0  0  0  0
   27.0669    8.2522    0.7321 O   0  0  0  0  0  0  0  0  0  0  0  0
   25.5436    7.2559    2.5203 C   0  0  0  0  0  0  0  0  0  0  0  0
   26.5435    6.3671    2.9938 N   0  0  0  0  0  0  0  0  0  0  0  0
   32.4543    8.6505    0.9081 C   0  0  2  0  0  0  0  0  0  0  0  0
   33.9281    8.5802    1.1316 N   0  0  0  0  0  0  0  0  0  0  0  0
   32.1381   10.1094    0.3182 C   0  0  0  0  0  0  0  0  0  0  0  0
   30.5984   10.2621    0.0282 C   0  0  2  0  0  0  0  0  0  0  0  0
   30.2929   11.6023   -0.4940 N   0  0  0  0  0  0  0  0  0  0  0  0
   29.7878   10.0521    1.3227 C   0  0  2  0  0  0  0  0  0  0  0  0
   30.0802    8.6224    1.9336 C   0  0  2  0  0  0  0  0  0  0  0  0
   29.2577    8.5180    3.1551 O   0  0  0  0  0  0  0  0  0  0  0  0
   31.6514    8.5158    2.2821 C   0  0  1  0  0  0  0  0  0  0  0  0
   31.8867    7.2550    2.8251 O   0  0  0  0  0  0  0  0  0  0  0  0
   29.3273    9.2650    4.2040 C   0  0  1  0  0  0  0  0  0  0  0  0
   30.6620    9.1859    5.0020 C   0  0  2  0  0  0  0  0  0  0  0  0
   30.5276    8.1969    5.9735 O   0  0  0  0  0  0  0  0  0  0  0  0
   30.6441   10.5343    5.5931 C   0  0  1  0  0  0  0  0  0  0  0  0
   30.0972   11.5275    4.5217 C   0  0  2  0  0  0  0  0  0  0  0  0
   29.1148   10.6933    3.9582 O   0  0  0  0  0  0  0  0  0  0  0  0
   31.0971   12.1897    3.5726 C   0  0  0  0  0  0  0  0  0  0  0  0
   31.9487   11.1579    3.1114 O   0  0  0  0  0  0  0  0  0  0  0  0
   29.1471   11.5940    7.2239 C   0  0  2  0  0  0  0  0  0  0  0  0
   29.7702   10.4529    6.8081 O   0  0  0  0  0  0  0  0  0  0  0  0
   28.5543   11.4459    8.5942 C   0  0  1  0  0  0  0  0  0  0  0  0
   25.5158   15.0887    5.8447 N   0  0  0  0  0  0  0  0  0  0  0  0
   36.5125    7.2357    1.7688 O   0  0  0  0  0  0  0  0  0  0  0  0
   27.8088   12.7796    8.9887 C   0  0  2  0  0  0  0  0  0  0  0  0
   26.6946   13.2029    7.9699 C   0  0  1  0  0  0  0  0  0  0  0  0
   27.2903   13.3485    6.6625 C   0  0  1  0  0  0  0  0  0  0  0  0
   28.0147   12.0781    6.2593 O   0  0  0  0  0  0  0  0  0  0  0  0
   26.1848   13.7359    5.5851 C   0  0  0  0  0  0  0  0  0  0  0  0
   27.6105   10.3991    8.6013 N   0  0  0  0  0  0  0  0  0  0  0  0
   24.6370   11.3526    0.2124 O   0  0  0  0  0  0  0  0  0  0  0  0
   36.9279    7.1549   -0.4629 C   0  0  0  0  0  0  0  0  0  0  0  0
   25.9068   12.3690    7.9286 O   0  0  0  0  0  0  0  0  0  0  0  0
   28.5824   13.6307    9.0058 O   0  0  0  0  0  0  0  0  0  0  0  0
   34.7321    7.8149    0.1233 C   0  0  0  0  0  0  0  0  0  0  0  0
   38.2574    7.5131   -0.4480 C   0  0  0  0  0  0  0  0  0  0  0  0
   36.3047    7.8408    0.4944 C   0  0  1  0  0  0  0  0  0  0  0  0
   24.2039    8.7295    0.3940 F   0  0  0  0  0  0  0  0  0  0  0  0
  1  2  1  1  0  0  0
  1 10  1  0  0  0  0
  1  3  1  0  0  0  0
  3  4  1  1  0  0  0
  3  6  1  0  0  0  0
  5 46  2  0  0  0  0
  6 42  1  6  0  0  0
  6  8  1  0  0  0  0
  7 47  1  0  0  0  0
  8  9  1  0  0  0  0
  8 49  1  6  0  0  0
  9 10  1  0  0  0  0
  9 11  1  6  0  0  0
 11 12  1  0  0  0  0
 13 14  1  1  0  0  0
 13 15  1  0  0  0  0
 13 21  1  0  0  0  0
 14 46  1  0  0  0  0
 15 16  1  0  0  0  0
 16 17  1  1  0  0  0
 16 18  1  0  0  0  0
 18  2  1  6  0  0  0
 18 19  1  0  0  0  0
 19 20  1  1  0  0  0
 19 21  1  0  0  0  0
 21 22  1  6  0  0  0
 23 20  1  6  0  0  0
 23 24  1  0  0  0  0
 23 28  1  0  0  0  0
 24 25  1  1  0  0  0
 24 26  1  0  0  0  0
 26 27  1  0  0  0  0
 26 32  1  1  0  0  0
 27 28  1  0  0  0  0
 27 29  1  6  0  0  0
 29 30  1  0  0  0  0
 31 32  1  6  0  0  0
 31 33  1  0  0  0  0
 31 39  1  0  0  0  0
 33 36  1  0  0  0  0
 33 41  1  6  0  0  0
 34 40  1  0  0  0  0
 35 48  1  0  0  0  0
 36 37  1  0  0  0  0
 36 45  1  6  0  0  0
 37 38  1  0  0  0  0
 37 44  1  6  0  0  0
 38 39  1  0  0  0  0
 38 40  1  6  0  0  0
 43 47  1  0  0  0  0
 46 48  1  0  0  0  0
 48 43  1  6  0  0  0
M  END
>  <CHROM.1>
-154.41926555,61.12180139,177.54227603,-102.86480535,-61.28704520,-64.39032819
-153.87137999,46.37706742,-167.69798257,63.20201299,-62.04656738,-80.27138302
-120.13736084,29.69073105,10.00558361,3.04003864,0.66394056,0.17113309,-1.95132572

>  <Name>
ligand

>  <RI>
0

>  <Rbt.Current_Directory>
/home/itssahil/PROJECTS/Mol_Feturizer/New_Systems/rnas/4PDQ

>  <Rbt.Executable>
rbdock ($Id: //depot/dev/client3/rdock/2013.1/src/exe/rbdock.cxx#4 $)

>  <Rbt.Library>
libRbt.so (2013.1, Build901 2013/11/27)

>  <Rbt.Parameter_File>
/export/apps/rDock/src/rDock_2013.1_src/data/scripts/dock_solv.prm

>  <Rbt.Receptor>
prm/pocket_docking_4.prm

>  <SCORE>
-4.65617

>  <SCORE.INTER>
3.67673

>  <SCORE.INTER.CONST>
1

>  <SCORE.INTER.POLAR>
0

>  <SCORE.INTER.ROT>
13

>  <SCORE.INTER.SOLV>
13.2104

>  <SCORE.INTER.VDW>
-14.219

>  <SCORE.INTER.norm>
0.0750353

>  <SCORE.INTRA>
-8.3329

>  <SCORE.INTRA.DIHEDRAL>
-24.1375

>  <SCORE.INTRA.DIHEDRAL.0>
34.5115

>  <SCORE.INTRA.POLAR>
0

>  <SCORE.INTRA.POLAR.0>
0

>  <SCORE.INTRA.REPUL>
0

>  <SCORE.INTRA.REPUL.0>
0

>  <SCORE.INTRA.SOLV>
2.36818

>  <SCORE.INTRA.SOLV.lig_0>
-122.812

>  <SCORE.INTRA.VDW>
2.55175

>  <SCORE.INTRA.VDW.0>
-7.46208

>  <SCORE.INTRA.norm>
-0.170059

>  <SCORE.RESTR>
0

>  <SCORE.RESTR.CAVITY>
0

>  <SCORE.RESTR.norm>
0

>  <SCORE.SYSTEM>
0

>  <SCORE.SYSTEM.CONST>
0

>  <SCORE.SYSTEM.DIHEDRAL>
0

>  <SCORE.SYSTEM.SOLV>
0

>  <SCORE.SYSTEM.norm>
0

>  <SCORE.heavy>
49

>  <SCORE.norm>
-0.0950239

>  <RMSD>
4.068

$$$$
ligand
 OpenBabel11021811513D
libRbt.so/2013.1/901 2013/11/27
 49 52  0  0  0  0  0  0  0  0999 V2000
   26.5388    7.3033   -0.1045 C   0  0  2  0  0  0  0  0  0  0  0  0
   27.4983    8.2572    0.2441 O   0  0  0  0  0  0  0  0  0  0  0  0
   25.1614    8.0126   -0.3817 C   0  0  2  0  0  0  0  0  0  0  0  0
   25.3377    9.0221   -1.5052 N   0  0  0  0  0  0  0  0  0  0  0  0
   33.1592    7.9821    1.1640 O   0  0  0  0  0  0  0  0  0  0  0  0
   24.6343    8.6878    0.9060 C   0  0  2  0  0  0  0  0  0  0  0  0
   36.9300    6.9366    0.0967 N   0  0  0  0  0  0  0  0  0  0  0  0
   24.4834    7.6523    2.0315 C   0  0  2  0  0  0  0  0  0  0  0  0
   25.8544    6.9136    2.3387 C   0  0  2  0  0  0  0  0  0  0  0  0
   26.3627    6.3086    1.0287 O   0  0  0  0  0  0  0  0  0  0  0  0
   25.6815    5.8281    3.4403 C   0  0  0  0  0  0  0  0  0  0  0  0
   24.8707    4.7329    3.0439 N   0  0  0  0  0  0  0  0  0  0  0  0
   30.9394    6.3027    2.0164 C   0  0  2  0  0  0  0  0  0  0  0  0
   32.3669    5.9850    2.3137 N   0  0  0  0  0  0  0  0  0  0  0  0
   30.8107    6.4376    0.4222 C   0  0  0  0  0  0  0  0  0  0  0  0
   29.3221    6.7500    0.0163 C   0  0  2  0  0  0  0  0  0  0  0  0
   29.1950    6.8960   -1.4413 N   0  0  0  0  0  0  0  0  0  0  0  0
   28.8531    8.0623    0.6757 C   0  0  2  0  0  0  0  0  0  0  0  0
   28.9713    7.9642    2.2503 C   0  0  2  0  0  0  0  0  0  0  0  0
   28.4952    9.2563    2.7825 O   0  0  0  0  0  0  0  0  0  0  0  0
   30.5150    7.7093    2.6422 C   0  0  1  0  0  0  0  0  0  0  0  0
   30.5991    7.6340    4.0304 O   0  0  0  0  0  0  0  0  0  0  0  0
   28.1470    9.5147    3.9969 C   0  0  1  0  0  0  0  0  0  0  0  0
   27.8115   11.0046    4.3006 C   0  0  2  0  0  0  0  0  0  0  0  0
   28.9795   11.6336    4.7247 O   0  0  0  0  0  0  0  0  0  0  0  0
   26.8719   10.7948    5.4147 C   0  0  1  0  0  0  0  0  0  0  0  0
   25.9947    9.5484    5.0826 C   0  0  2  0  0  0  0  0  0  0  0  0
   26.9899    8.7577    4.4803 O   0  0  0  0  0  0  0  0  0  0  0  0
   24.6938    9.7655    4.3083 C   0  0  0  0  0  0  0  0  0  0  0  0
   23.8330   10.4827    5.1729 O   0  0  0  0  0  0  0  0  0  0  0  0
   27.0626   10.4246    7.8334 C   0  0  2  0  0  0  0  0  0  0  0  0
   27.7079   10.6047    6.6441 O   0  0  0  0  0  0  0  0  0  0  0  0
   26.1488   11.5694    8.1586 C   0  0  1  0  0  0  0  0  0  0  0  0
   27.8885    9.2821   12.8573 N   0  0  0  0  0  0  0  0  0  0  0  0
   34.8877    5.9822    3.5523 O   0  0  0  0  0  0  0  0  0  0  0  0
   25.4776   11.3199    9.5648 C   0  0  2  0  0  0  0  0  0  0  0  0
   26.5097   11.1160   10.7276 C   0  0  1  0  0  0  0  0  0  0  0  0
   27.3702   10.0045   10.3966 C   0  0  1  0  0  0  0  0  0  0  0  0
   28.0283   10.2199    9.0469 O   0  0  0  0  0  0  0  0  0  0  0  0
   28.4646    9.7883   11.5318 C   0  0  0  0  0  0  0  0  0  0  0  0
   26.8852   12.7688    8.2324 N   0  0  0  0  0  0  0  0  0  0  0  0
   23.6161    9.1597    0.6896 O   0  0  0  0  0  0  0  0  0  0  0  0
   35.2270    5.5142    1.3555 C   0  0  0  0  0  0  0  0  0  0  0  0
   27.1473   12.0664   10.8157 O   0  0  0  0  0  0  0  0  0  0  0  0
   24.8576   10.3532    9.4992 O   0  0  0  0  0  0  0  0  0  0  0  0
   33.3974    6.9471    1.8027 C   0  0  0  0  0  0  0  0  0  0  0  0
   35.7865    6.1104    0.2477 C   0  0  0  0  0  0  0  0  0  0  0  0
   34.8870    6.4747    2.2141 C   0  0  1  0  0  0  0  0  0  0  0  0
   23.5351    6.6810    1.6647 F   0  0  0  0  0  0  0  0  0  0  0  0
  1  2  1  1  0  0  0
  1 10  1  0  0  0  0
  1  3  1  0  0  0  0
  3  4  1  6  0  0  0
  3  6  1  0  0  0  0
  5 46  2  0  0  0  0
  6 42  1  6  0  0  0
  6  8  1  0  0  0  0
  7 47  1  0  0  0  0
  8  9  1  0  0  0  0
  8 49  1  6  0  0  0
  9 10  1  0  0  0  0
  9 11  1  1  0  0  0
 11 12  1  0  0  0  0
 13 14  1  6  0  0  0
 13 15  1  0  0  0  0
 13 21  1  0  0  0  0
 14 46  1  0  0  0  0
 15 16  1  0  0  0  0
 16 17  1  6  0  0  0
 16 18  1  0  0  0  0
 18  2  1  1  0  0  0
 18 19  1  0  0  0  0
 19 20  1  1  0  0  0
 19 21  1  0  0  0  0
 21 22  1  1  0  0  0
 23 20  1  6  0  0  0
 23 24  1  0  0  0  0
 23 28  1  0  0  0  0
 24 25  1  1  0  0  0
 24 26  1  0  0  0  0
 26 27  1  0  0  0  0
 26 32  1  1  0  0  0
 27 28  1  0  0  0  0
 27 29  1  6  0  0  0
 29 30  1  0  0  0  0
 31 32  1  6  0  0  0
 31 33  1  0  0  0  0
 31 39  1  0  0  0  0
 33 36  1  0  0  0  0
 33 41  1  1  0  0  0
 34 40  1  0  0  0  0
 35 48  1  0  0  0  0
 36 37  1  0  0  0  0
 36 45  1  6  0  0  0
 37 38  1  0  0  0  0
 37 44  1  6  0  0  0
 38 39  1  0  0  0  0
 38 40  1  1  0  0  0
 43 47  1  0  0  0  0
 46 48  1  0  0  0  0
 48 43  1  6  0  0  0
M  END
>  <CHROM.1>
174.79070985,29.15558793,66.74957623,56.56479004,163.76363905,174.50693463
178.31894903,-67.38535994,-57.95447675,68.80452230,60.28565671,-153.35341091
138.18870094,28.22214357,8.54946077,3.93813306,1.02664026,0.16175249,-1.92562853

>  <Name>
ligand

>  <RI>
0

>  <Rbt.Current_Directory>
/home/itssahil/PROJECTS/Mol_Feturizer/New_Systems/rnas/4PDQ

>  <Rbt.Executable>
rbdock ($Id: //depot/dev/client3/rdock/2013.1/src/exe/rbdock.cxx#4 $)

>  <Rbt.Library>
libRbt.so (2013.1, Build901 2013/11/27)

>  <Rbt.Parameter_File>
/export/apps/rDock/src/rDock_2013.1_src/data/scripts/dock_solv.prm

>  <Rbt.Receptor>
prm/pocket_docking_5.prm

>  <SCORE>
-10.9761

>  <SCORE.INTER>
-0.249315

>  <SCORE.INTER.CONST>
1

>  <SCORE.INTER.POLAR>
0

>  <SCORE.INTER.ROT>
13

>  <SCORE.INTER.SOLV>
23.5144

>  <SCORE.INTER.VDW>
-20.271

>  <SCORE.INTER.norm>
-0.00508805

>  <SCORE.INTRA>
-10.7267

>  <SCORE.INTRA.DIHEDRAL>
-25.2088

>  <SCORE.INTRA.DIHEDRAL.0>
34.5115

>  <SCORE.INTRA.POLAR>
0

>  <SCORE.INTRA.POLAR.0>
0

>  <SCORE.INTRA.REPUL>
0

>  <SCORE.INTRA.REPUL.0>
0

>  <SCORE.INTRA.SOLV>
0.0384978

>  <SCORE.INTRA.SOLV.lig_0>
-122.812

>  <SCORE.INTRA.VDW>
1.8584

>  <SCORE.INTRA.VDW.0>
-7.46208

>  <SCORE.INTRA.norm>
-0.218913

>  <SCORE.RESTR>
0

>  <SCORE.RESTR.CAVITY>
0

>  <SCORE.RESTR.norm>
0

>  <SCORE.SYSTEM>
0

>  <SCORE.SYSTEM.CONST>
0

>  <SCORE.SYSTEM.DIHEDRAL>
0

>  <SCORE.SYSTEM.SOLV>
0

>  <SCORE.SYSTEM.norm>
0

>  <SCORE.heavy>
49

>  <SCORE.norm>
-0.224001

>  <RMSD>
4.081

$$$$
ligand
 OpenBabel11021811513D
libRbt.so/2013.1/901 2013/11/27
 49 52  0  0  0  0  0  0  0  0999 V2000
   27.2860    7.5574    3.1818 C   0  0  2  0  0  0  0  0  0  0  0  0
   27.7681    8.6340    2.4332 O   0  0  0  0  0  0  0  0  0  0  0  0
   25.9748    6.9940    2.5180 C   0  0  2  0  0  0  0  0  0  0  0  0
   26.2857    6.5537    1.0960 N   0  0  0  0  0  0  0  0  0  0  0  0
   34.0706    6.6533    1.6084 O   0  0  0  0  0  0  0  0  0  0  0  0
   24.8554    8.0607    2.5465 C   0  0  2  0  0  0  0  0  0  0  0  0
   38.0550    8.5629   -1.4134 N   0  0  0  0  0  0  0  0  0  0  0  0
   24.5732    8.5039    3.9906 C   0  0  2  0  0  0  0  0  0  0  0  0
   25.8751    9.0773    4.6948 C   0  0  2  0  0  0  0  0  0  0  0  0
   26.9680    8.0114    4.5952 O   0  0  0  0  0  0  0  0  0  0  0  0
   25.5951    9.4721    6.1738 C   0  0  0  0  0  0  0  0  0  0  0  0
   25.2060    8.3817    6.9946 N   0  0  0  0  0  0  0  0  0  0  0  0
   32.1023    8.5779    2.5551 C   0  0  2  0  0  0  0  0  0  0  0  0
   33.5141    8.9411    2.2362 N   0  0  0  0  0  0  0  0  0  0  0  0
   31.3249    8.4436    1.1572 C   0  0  0  0  0  0  0  0  0  0  0  0
   29.8240    8.0359    1.4009 C   0  0  2  0  0  0  0  0  0  0  0  0
   29.0956    7.9293    0.1281 N   0  0  0  0  0  0  0  0  0  0  0  0
   29.1186    9.0929    2.2738 C   0  0  2  0  0  0  0  0  0  0  0  0
   29.8637    9.2533    3.6602 C   0  0  2  0  0  0  0  0  0  0  0  0
   29.1125   10.2733    4.4183 O   0  0  0  0  0  0  0  0  0  0  0  0
   31.3784    9.7343    3.3853 C   0  0  1  0  0  0  0  0  0  0  0  0
   32.0141    9.8771    4.6163 O   0  0  0  0  0  0  0  0  0  0  0  0
   28.9576   10.3324    5.6971 C   0  0  1  0  0  0  0  0  0  0  0  0
   30.2669   10.4552    6.5309 C   0  0  2  0  0  0  0  0  0  0  0  0
   30.6965    9.1704    6.8541 O   0  0  0  0  0  0  0  0  0  0  0  0
   29.7152   11.1547    7.7032 C   0  0  1  0  0  0  0  0  0  0  0  0
   28.6676   12.1952    7.1999 C   0  0  2  0  0  0  0  0  0  0  0  0
   28.1046   11.4277    6.1643 O   0  0  0  0  0  0  0  0  0  0  0  0
   29.1549   13.6037    6.8566 C   0  0  0  0  0  0  0  0  0  0  0  0
   29.7405   14.1190    8.0373 O   0  0  0  0  0  0  0  0  0  0  0  0
   28.4574   10.5057    9.7082 C   0  0  2  0  0  0  0  0  0  0  0  0
   29.1104   10.1004    8.5801 O   0  0  0  0  0  0  0  0  0  0  0  0
   28.2667    9.3822   10.6842 C   0  0  1  0  0  0  0  0  0  0  0  0
   25.0201   13.3422    9.1296 N   0  0  0  0  0  0  0  0  0  0  0  0
   36.8094    7.9076    2.4316 O   0  0  0  0  0  0  0  0  0  0  0  0
   27.4634    9.9078   11.9366 C   0  0  2  0  0  0  0  0  0  0  0  0
   26.0746   10.5390   11.5739 C   0  0  1  0  0  0  0  0  0  0  0  0
   26.2847   11.6225   10.6426 C   0  0  1  0  0  0  0  0  0  0  0  0
   27.0564   11.1428    9.4279 O   0  0  0  0  0  0  0  0  0  0  0  0
   24.8943   12.2661   10.2118 C   0  0  0  0  0  0  0  0  0  0  0  0
   27.5188    8.3468   10.0883 N   0  0  0  0  0  0  0  0  0  0  0  0
   23.9039    7.6147    2.0968 O   0  0  0  0  0  0  0  0  0  0  0  0
   36.2177    7.9275    0.2386 C   0  0  0  0  0  0  0  0  0  0  0  0
   25.4324    9.7333   11.0680 O   0  0  0  0  0  0  0  0  0  0  0  0
   28.0834   10.7372   12.4374 O   0  0  0  0  0  0  0  0  0  0  0  0
   34.4094    7.8353    1.7624 C   0  0  0  0  0  0  0  0  0  0  0  0
   37.3382    8.6035   -0.1897 C   0  0  0  0  0  0  0  0  0  0  0  0
   35.8955    8.3864    1.4473 C   0  0  1  0  0  0  0  0  0  0  0  0
   24.1122    7.4109    4.7456 F   0  0  0  0  0  0  0  0  0  0  0  0
  1  2  1  6  0  0  0
  1 10  1  0  0  0  0
  1  3  1  0  0  0  0
  3  4  1  6  0  0  0
  3  6  1  0  0  0  0
  5 46  2  0  0  0  0
  6 42  1  1  0  0  0
  6  8  1  0  0  0  0
  7 47  1  0  0  0  0
  8  9  1  0  0  0  0
  8 49  1  1  0  0  0
  9 10  1  0  0  0  0
  9 11  1  1  0  0  0
 11 12  1  0  0  0  0
 13 14  1  6  0  0  0
 13 15  1  0  0  0  0
 13 21  1  0  0  0  0
 14 46  1  0  0  0  0
 15 16  1  0  0  0  0
 16 17  1  6  0  0  0
 16 18  1  0  0  0  0
 18  2  1  1  0  0  0
 18 19  1  0  0  0  0
 19 20  1  1  0  0  0
 19 21  1  0  0  0  0
 21 22  1  1  0  0  0
 23 20  1  6  0  0  0
 23 24  1  0  0  0  0
 23 28  1  0  0  0  0
 24 25  1  1  0  0  0
 24 26  1  0  0  0  0
 26 27  1  0  0  0  0
 26 32  1  1  0  0  0
 27 28  1  0  0  0  0
 27 29  1  6  0  0  0
 29 30  1  0  0  0  0
 31 32  1  6  0  0  0
 31 33  1  0  0  0  0
 31 39  1  0  0  0  0
 33 36  1  0  0  0  0
 33 41  1  6  0  0  0
 34 40  1  0  0  0  0
 35 48  1  0  0  0  0
 36 37  1  0  0  0  0
 36 45  1  6  0  0  0
 37 38  1  0  0  0  0
 37 44  1  6  0  0  0
 38 39  1  0  0  0  0
 38 40  1  6  0  0  0
 43 47  1  0  0  0  0
 46 48  1  0  0  0  0
 48 43  1  6  0  0  0
M  END
>  <CHROM.1>
-150.96472489,71.24886473,62.46415769,-77.80334426,147.76584511,60.02959585
-176.28391301,-58.92926985,-162.88497319,-174.87862674,-176.28440174,-73.51345462
-71.61764737,29.10173422,9.43525310,5.27788033,0.83378262,-0.14424999,-1.98081352

>  <Name>
ligand

>  <RI>
0

>  <Rbt.Current_Directory>
/home/itssahil/PROJECTS/Mol_Feturizer/New_Systems/rnas/4PDQ

>  <Rbt.Executable>
rbdock ($Id: //depot/dev/client3/rdock/2013.1/src/exe/rbdock.cxx#4 $)

>  <Rbt.Library>
libRbt.so (2013.1, Build901 2013/11/27)

>  <Rbt.Parameter_File>
/export/apps/rDock/src/rDock_2013.1_src/data/scripts/dock_solv.prm

>  <Rbt.Receptor>
prm/pocket_docking_4.prm

>  <SCORE>
-6.89473

>  <SCORE.INTER>
1.99483

>  <SCORE.INTER.CONST>
1

>  <SCORE.INTER.POLAR>
0

>  <SCORE.INTER.ROT>
13

>  <SCORE.INTER.SOLV>
9.05794

>  <SCORE.INTER.VDW>
-13.9561

>  <SCORE.INTER.norm>
0.0407107

>  <SCORE.INTRA>
-8.88955

>  <SCORE.INTRA.DIHEDRAL>
-21.6293

>  <SCORE.INTRA.DIHEDRAL.0>
34.5115

>  <SCORE.INTRA.POLAR>
0

>  <SCORE.INTRA.POLAR.0>
0

>  <SCORE.INTRA.REPUL>
0

>  <SCORE.INTRA.REPUL.0>
0

>  <SCORE.INTRA.SOLV>
0.634134

>  <SCORE.INTRA.SOLV.lig_0>
-122.812

>  <SCORE.INTRA.VDW>
1.60805

>  <SCORE.INTRA.VDW.0>
-7.46208

>  <SCORE.INTRA.norm>
-0.181419

>  <SCORE.RESTR>
0

>  <SCORE.RESTR.CAVITY>
0

>  <SCORE.RESTR.norm>
0

>  <SCORE.SYSTEM>
0

>  <SCORE.SYSTEM.CONST>
0

>  <SCORE.SYSTEM.DIHEDRAL>
0

>  <SCORE.SYSTEM.SOLV>
0

>  <SCORE.SYSTEM.norm>
0

>  <SCORE.heavy>
49

>  <SCORE.norm>
-0.140709

>  <RMSD>
4.091

$$$$
ligand
 OpenBabel11021811513D
libRbt.so/2013.1/901 2013/11/27
 49 52  0  0  0  0  0  0  0  0999 V2000
   25.9458    8.1298    0.1540 C   0  0  2  0  0  0  0  0  0  0  0  0
   26.4925    9.1218    0.9720 O   0  0  0  0  0  0  0  0  0  0  0  0
   24.4591    7.8457    0.5855 C   0  0  2  0  0  0  0  0  0  0  0  0
   23.6530    9.1301    0.4717 N   0  0  0  0  0  0  0  0  0  0  0  0
   32.7685    9.1789   -1.7734 O   0  0  0  0  0  0  0  0  0  0  0  0
   24.4147    7.2770    2.0230 C   0  0  2  0  0  0  0  0  0  0  0  0
   36.2408   10.3588    0.9571 N   0  0  0  0  0  0  0  0  0  0  0  0
   25.2517    5.9917    2.1176 C   0  0  2  0  0  0  0  0  0  0  0  0
   26.7595    6.2388    1.6876 C   0  0  2  0  0  0  0  0  0  0  0  0
   26.7511    6.8495    0.2850 O   0  0  0  0  0  0  0  0  0  0  0  0
   27.5873    4.9219    1.7325 C   0  0  0  0  0  0  0  0  0  0  0  0
   28.9464    5.0858    1.3584 N   0  0  0  0  0  0  0  0  0  0  0  0
   30.3136   10.3135   -0.6961 C   0  0  2  0  0  0  0  0  0  0  0  0
   31.5574   11.1096   -0.9112 N   0  0  0  0  0  0  0  0  0  0  0  0
   29.0954   11.3562   -0.6242 C   0  0  0  0  0  0  0  0  0  0  0  0
   27.7325   10.5947   -0.4220 C   0  0  2  0  0  0  0  0  0  0  0  0
   26.6104   11.5408   -0.3344 N   0  0  0  0  0  0  0  0  0  0  0  0
   27.7703    9.7687    0.8792 C   0  0  2  0  0  0  0  0  0  0  0  0
   28.9648    8.7319    0.8428 C   0  0  2  0  0  0  0  0  0  0  0  0
   28.9098    7.9921    2.1191 O   0  0  0  0  0  0  0  0  0  0  0  0
   30.3529    9.5408    0.7011 C   0  0  1  0  0  0  0  0  0  0  0  0
   31.3909    8.6125    0.6788 O   0  0  0  0  0  0  0  0  0  0  0  0
   28.8088    8.4931    3.3030 C   0  0  1  0  0  0  0  0  0  0  0  0
   28.4763    7.4808    4.4385 C   0  0  2  0  0  0  0  0  0  0  0  0
   27.0914    7.4219    4.5741 O   0  0  0  0  0  0  0  0  0  0  0  0
   29.1022    8.1982    5.5618 C   0  0  1  0  0  0  0  0  0  0  0  0
   30.4330    8.8327    5.0521 C   0  0  2  0  0  0  0  0  0  0  0  0
   29.9956    9.2132    3.7705 O   0  0  0  0  0  0  0  0  0  0  0  0
   31.7135    8.0020    5.1486 C   0  0  0  0  0  0  0  0  0  0  0  0
   31.5123    6.8670    4.3278 O   0  0  0  0  0  0  0  0  0  0  0  0
   28.3877    9.9228    7.1551 C   0  0  2  0  0  0  0  0  0  0  0  0
   28.1079    9.2232    6.0168 O   0  0  0  0  0  0  0  0  0  0  0  0
   28.3789    9.0461    8.3727 C   0  0  1  0  0  0  0  0  0  0  0  0
   26.5746   14.0422    7.5598 N   0  0  0  0  0  0  0  0  0  0  0  0
   33.5696   12.5983   -2.2507 O   0  0  0  0  0  0  0  0  0  0  0  0
   28.6579    9.9257    9.6527 C   0  0  2  0  0  0  0  0  0  0  0  0
   27.6423   11.1057    9.8393 C   0  0  1  0  0  0  0  0  0  0  0  0
   27.6759   11.9396    8.6607 C   0  0  1  0  0  0  0  0  0  0  0  0
   27.4105   11.1166    7.4143 O   0  0  0  0  0  0  0  0  0  0  0  0
   26.6258   13.1288    8.7879 C   0  0  0  0  0  0  0  0  0  0  0  0
   27.1141    8.4430    8.5241 N   0  0  0  0  0  0  0  0  0  0  0  0
   23.3305    7.0413    2.2974 O   0  0  0  0  0  0  0  0  0  0  0  0
   34.4953   11.5894   -0.4382 C   0  0  0  0  0  0  0  0  0  0  0  0
   26.5895   10.6622    9.9508 O   0  0  0  0  0  0  0  0  0  0  0  0
   29.6998   10.4003    9.5409 O   0  0  0  0  0  0  0  0  0  0  0  0
   32.7423   10.3802   -1.4705 C   0  0  0  0  0  0  0  0  0  0  0  0
   35.4317   10.6134   -0.1801 C   0  0  0  0  0  0  0  0  0  0  0  0
   34.0015   11.3757   -1.6572 C   0  0  1  0  0  0  0  0  0  0  0  0
   24.7116    5.0052    1.2736 F   0  0  0  0  0  0  0  0  0  0  0  0
  1  2  1  1  0  0  0
  1 10  1  0  0  0  0
  1  3  1  0  0  0  0
  3  4  1  1  0  0  0
  3  6  1  0  0  0  0
  5 46  2  0  0  0  0
  6 42  1  6  0  0  0
  6  8  1  0  0  0  0
  7 47  1  0  0  0  0
  8  9  1  0  0  0  0
  8 49  1  6  0  0  0
  9 10  1  0  0  0  0
  9 11  1  6  0  0  0
 11 12  1  0  0  0  0
 13 14  1  1  0  0  0
 13 15  1  0  0  0  0
 13 21  1  0  0  0  0
 14 46  1  0  0  0  0
 15 16  1  0  0  0  0
 16 17  1  1  0  0  0
 16 18  1  0  0  0  0
 18  2  1  6  0  0  0
 18 19  1  0  0  0  0
 19 20  1  1  0  0  0
 19 21  1  0  0  0  0
 21 22  1  6  0  0  0
 23 20  1  6  0  0  0
 23 24  1  0  0  0  0
 23 28  1  0  0  0  0
 24 25  1  1  0  0  0
 24 26  1  0  0  0  0
 26 27  1  0  0  0  0
 26 32  1  6  0  0  0
 27 28  1  0  0  0  0
 27 29  1  6  0  0  0
 29 30  1  0  0  0  0
 31 32  1  6  0  0  0
 31 33  1  0  0  0  0
 31 39  1  0  0  0  0
 33 36  1  0  0  0  0
 33 41  1  1  0  0  0
 34 40  1  0  0  0  0
 35 48  1  0  0  0  0
 36 37  1  0  0  0  0
 36 45  1  6  0  0  0
 37 38  1  0  0  0  0
 37 44  1  6  0  0  0
 38 39  1  0  0  0  0
 38 40  1  1  0  0  0
 43 47  1  0  0  0  0
 46 48  1  0  0  0  0
 48 43  1  1  0  0  0
M  END
>  <CHROM.1>
-174.57885116,66.61651545,-179.91192999,-159.74899861,-48.91490180,167.75359883
172.55686098,62.51872931,-66.60684402,-178.57184739,-179.17975282,-151.57239867
134.33946227,28.75958246,9.18345461,3.02625431,1.02671575,-0.44663043,-1.82482430

>  <Name>
ligand

>  <RI>
0

>  <Rbt.Current_Directory>
/home/itssahil/PROJECTS/Mol_Feturizer/New_Systems/rnas/4PDQ

>  <Rbt.Executable>
rbdock ($Id: //depot/dev/client3/rdock/2013.1/src/exe/rbdock.cxx#4 $)

>  <Rbt.Library>
libRbt.so (2013.1, Build901 2013/11/27)

>  <Rbt.Parameter_File>
/export/apps/rDock/src/rDock_2013.1_src/data/scripts/dock_solv.prm

>  <Rbt.Receptor>
prm/pocket_docking_6.prm

>  <SCORE>
-14.0654

>  <SCORE.INTER>
-0.140656

>  <SCORE.INTER.CONST>
1

>  <SCORE.INTER.POLAR>
0

>  <SCORE.INTER.ROT>
13

>  <SCORE.INTER.SOLV>
17.0389

>  <SCORE.INTER.VDW>
-18.0401

>  <SCORE.INTER.norm>
-0.00287053

>  <SCORE.INTRA>
-13.9247

>  <SCORE.INTRA.DIHEDRAL>
-28.5595

>  <SCORE.INTRA.DIHEDRAL.0>
34.5115

>  <SCORE.INTRA.POLAR>
0

>  <SCORE.INTRA.POLAR.0>
0

>  <SCORE.INTRA.REPUL>
0

>  <SCORE.INTRA.REPUL.0>
0

>  <SCORE.INTRA.SOLV>
0.317733

>  <SCORE.INTRA.SOLV.lig_0>
-122.812

>  <SCORE.INTRA.VDW>
0.196173

>  <SCORE.INTRA.VDW.0>
-7.46208

>  <SCORE.INTRA.norm>
-0.284178

>  <SCORE.RESTR>
0

>  <SCORE.RESTR.CAVITY>
0

>  <SCORE.RESTR.norm>
0

>  <SCORE.SYSTEM>
0

>  <SCORE.SYSTEM.CONST>
0

>  <SCORE.SYSTEM.DIHEDRAL>
0

>  <SCORE.SYSTEM.SOLV>
0

>  <SCORE.SYSTEM.norm>
0

>  <SCORE.heavy>
49

>  <SCORE.norm>
-0.287048

>  <RMSD>
4.165

$$$$
ligand
 OpenBabel11021811513D
libRbt.so/2013.1/901 2013/11/27
 49 52  0  0  0  0  0  0  0  0999 V2000
   28.2515   11.0495    1.1244 C   0  0  2  0  0  0  0  0  0  0  0  0
   29.2570   10.4699    1.9021 O   0  0  0  0  0  0  0  0  0  0  0  0
   27.1381   11.6523    2.0594 C   0  0  2  0  0  0  0  0  0  0  0  0
   27.7652   12.6917    2.9751 N   0  0  0  0  0  0  0  0  0  0  0  0
   34.9649    6.8060    2.8237 O   0  0  0  0  0  0  0  0  0  0  0  0
   26.4486   10.5294    2.8690 C   0  0  2  0  0  0  0  0  0  0  0  0
   39.6435    9.1139    0.3315 N   0  0  0  0  0  0  0  0  0  0  0  0
   25.8404    9.4819    1.9233 C   0  0  2  0  0  0  0  0  0  0  0  0
   26.9349    8.8519    0.9616 C   0  0  2  0  0  0  0  0  0  0  0  0
   27.6249   10.0005    0.2234 O   0  0  0  0  0  0  0  0  0  0  0  0
   26.3023    7.8332   -0.0303 C   0  0  0  0  0  0  0  0  0  0  0  0
   25.7558    6.6843    0.5984 N   0  0  0  0  0  0  0  0  0  0  0  0
   33.0486    8.4370    1.3600 C   0  0  2  0  0  0  0  0  0  0  0  0
   34.4347    8.1705    0.8756 N   0  0  0  0  0  0  0  0  0  0  0  0
   32.1909    8.9135    0.0896 C   0  0  0  0  0  0  0  0  0  0  0  0
   30.6996    9.1944    0.5085 C   0  0  2  0  0  0  0  0  0  0  0  0
   29.9080    9.6513   -0.6431 N   0  0  0  0  0  0  0  0  0  0  0  0
   30.6470   10.2873    1.5947 C   0  0  2  0  0  0  0  0  0  0  0  0
   31.4876    9.8501    2.8617 C   0  0  2  0  0  0  0  0  0  0  0  0
   31.3682   10.9512    3.8378 O   0  0  0  0  0  0  0  0  0  0  0  0
   33.0231    9.6325    2.4186 C   0  0  1  0  0  0  0  0  0  0  0  0
   33.7470    9.2564    3.5474 O   0  0  0  0  0  0  0  0  0  0  0  0
   30.3928   11.1622    4.6544 C   0  0  1  0  0  0  0  0  0  0  0  0
   30.1509   10.0517    5.7187 C   0  0  2  0  0  0  0  0  0  0  0  0
   29.2368    9.1411    5.1941 O   0  0  0  0  0  0  0  0  0  0  0  0
   29.5451   10.8847    6.7708 C   0  0  1  0  0  0  0  0  0  0  0  0
   30.2988   12.2501    6.8039 C   0  0  2  0  0  0  0  0  0  0  0  0
   30.4883   12.4079    5.4191 O   0  0  0  0  0  0  0  0  0  0  0  0
   31.5256   12.3770    7.7083 C   0  0  0  0  0  0  0  0  0  0  0  0
   31.1466   11.8509    8.9662 O   0  0  0  0  0  0  0  0  0  0  0  0
   27.2403   11.4611    7.3866 C   0  0  2  0  0  0  0  0  0  0  0  0
   28.0966   11.0303    6.4146 O   0  0  0  0  0  0  0  0  0  0  0  0
   25.8675   11.7369    6.8475 C   0  0  1  0  0  0  0  0  0  0  0  0
   26.6751   15.0556   11.1365 N   0  0  0  0  0  0  0  0  0  0  0  0
   36.6313    6.5169   -0.2089 O   0  0  0  0  0  0  0  0  0  0  0  0
   24.9478   12.2778    8.0100 C   0  0  2  0  0  0  0  0  0  0  0  0
   25.5111   13.5614    8.7128 C   0  0  1  0  0  0  0  0  0  0  0  0
   26.8269   13.2687    9.2312 C   0  0  1  0  0  0  0  0  0  0  0  0
   27.7318   12.7458    8.1318 O   0  0  0  0  0  0  0  0  0  0  0  0
   27.4568   14.5597    9.9166 C   0  0  0  0  0  0  0  0  0  0  0  0
   25.9322   12.7256    5.8452 N   0  0  0  0  0  0  0  0  0  0  0  0
   25.6187   10.9864    3.5083 O   0  0  0  0  0  0  0  0  0  0  0  0
   37.3124    8.3182    0.9959 C   0  0  0  0  0  0  0  0  0  0  0  0
   25.5977   14.3946    7.9280 O   0  0  0  0  0  0  0  0  0  0  0  0
   24.8756   11.4626    8.8183 O   0  0  0  0  0  0  0  0  0  0  0  0
   35.3051    7.3135    1.7455 C   0  0  0  0  0  0  0  0  0  0  0  0
   38.6250    8.1659    0.6086 C   0  0  0  0  0  0  0  0  0  0  0  0
   36.7643    7.1068    1.0825 C   0  0  1  0  0  0  0  0  0  0  0  0
   24.8466   10.0765    1.1257 F   0  0  0  0  0  0  0  0  0  0  0  0
  1  2  1  1  0  0  0
  1 10  1  0  0  0  0
  1  3  1  0  0  0  0
  3  4  1  1  0  0  0
  3  6  1  0  0  0  0
  5 46  2  0  0  0  0
  6 42  1  6  0  0  0
  6  8  1  0  0  0  0
  7 47  1  0  0  0  0
  8  9  1  0  0  0  0
  8 49  1  6  0  0  0
  9 10  1  0  0  0  0
  9 11  1  6  0  0  0
 11 12  1  0  0  0  0
 13 14  1  6  0  0  0
 13 15  1  0  0  0  0
 13 21  1  0  0  0  0
 14 46  1  0  0  0  0
 15 16  1  0  0  0  0
 16 17  1  6  0  0  0
 16 18  1  0  0  0  0
 18  2  1  1  0  0  0
 18 19  1  0  0  0  0
 19 20  1  1  0  0  0
 19 21  1  0  0  0  0
 21 22  1  1  0  0  0
 23 20  1  1  0  0  0
 23 24  1  0  0  0  0
 23 28  1  0  0  0  0
 24 25  1  6  0  0  0
 24 26  1  0  0  0  0
 26 27  1  0  0  0  0
 26 32  1  6  0  0  0
 27 28  1  0  0  0  0
 27 29  1  1  0  0  0
 29 30  1  0  0  0  0
 31 32  1  6  0  0  0
 31 33  1  0  0  0  0
 31 39  1  0  0  0  0
 33 36  1  0  0  0  0
 33 41  1  6  0  0  0
 34 40  1  0  0  0  0
 35 48  1  0  0  0  0
 36 37  1  0  0  0  0
 36 45  1  1  0  0  0
 37 38  1  0  0  0  0
 37 44  1  6  0  0  0
 38 39  1  0  0  0  0
 38 40  1  6  0  0  0
 43 47  1  0  0  0  0
 46 48  1  0  0  0  0
 48 43  1  6  0  0  0
M  END
>  <CHROM.1>
-152.54909008,-70.72088923,-64.95820071,-161.06679768,81.84056853,62.82995518
163.55820399,-47.79773983,172.30712357,63.19884209,177.95440876,-68.76911597
121.10887078,29.78671657,10.46286072,3.94509340,0.73016694,0.12921411,-2.02474185

>  <Name>
ligand

>  <RI>
0

>  <Rbt.Current_Directory>
/home/itssahil/PROJECTS/Mol_Feturizer/New_Systems/rnas/4PDQ

>  <Rbt.Executable>
rbdock ($Id: //depot/dev/client3/rdock/2013.1/src/exe/rbdock.cxx#4 $)

>  <Rbt.Library>
libRbt.so (2013.1, Build901 2013/11/27)

>  <Rbt.Parameter_File>
/export/apps/rDock/src/rDock_2013.1_src/data/scripts/dock_solv.prm

>  <Rbt.Receptor>
prm/pocket_docking_5.prm

>  <SCORE>
-8.19074

>  <SCORE.INTER>
0.870401

>  <SCORE.INTER.CONST>
1

>  <SCORE.INTER.POLAR>
0

>  <SCORE.INTER.ROT>
13

>  <SCORE.INTER.SOLV>
16.6255

>  <SCORE.INTER.VDW>
-17.2282

>  <SCORE.INTER.norm>
0.0177633

>  <SCORE.INTRA>
-9.06114

>  <SCORE.INTRA.DIHEDRAL>
-25.0729

>  <SCORE.INTRA.DIHEDRAL.0>
34.5115

>  <SCORE.INTRA.POLAR>
0

>  <SCORE.INTRA.POLAR.0>
0

>  <SCORE.INTRA.REPUL>
0

>  <SCORE.INTRA.REPUL.0>
0

>  <SCORE.INTRA.SOLV>
3.44574

>  <SCORE.INTRA.SOLV.lig_0>
-122.812

>  <SCORE.INTRA.VDW>
1.75245

>  <SCORE.INTRA.VDW.0>
-7.46208

>  <SCORE.INTRA.norm>
-0.184921

>  <SCORE.RESTR>
0

>  <SCORE.RESTR.CAVITY>
0

>  <SCORE.RESTR.norm>
0

>  <SCORE.SYSTEM>
0

>  <SCORE.SYSTEM.CONST>
0

>  <SCORE.SYSTEM.DIHEDRAL>
0

>  <SCORE.SYSTEM.SOLV>
0

>  <SCORE.SYSTEM.norm>
0

>  <SCORE.heavy>
49

>  <SCORE.norm>
-0.167158

>  <RMSD>
4.213

$$$$
ligand
 OpenBabel11021811513D
libRbt.so/2013.1/901 2013/11/27
 49 52  0  0  0  0  0  0  0  0999 V2000
   27.2527    9.7010   -0.0540 C   0  0  2  0  0  0  0  0  0  0  0  0
   28.5470    9.4041    0.3802 O   0  0  0  0  0  0  0  0  0  0  0  0
   26.6109   10.7836    0.8911 C   0  0  2  0  0  0  0  0  0  0  0  0
   27.4752   12.0346    0.8752 N   0  0  0  0  0  0  0  0  0  0  0  0
   34.4669   11.0442   -2.4155 O   0  0  0  0  0  0  0  0  0  0  0  0
   26.4553   10.2234    2.3242 C   0  0  2  0  0  0  0  0  0  0  0  0
   39.2827   13.1133   -2.0580 N   0  0  0  0  0  0  0  0  0  0  0  0
   25.5955    8.9498    2.3120 C   0  0  2  0  0  0  0  0  0  0  0  0
   26.2113    7.8335    1.3663 C   0  0  2  0  0  0  0  0  0  0  0  0
   26.3963    8.4479   -0.0224 O   0  0  0  0  0  0  0  0  0  0  0  0
   25.3068    6.5682    1.3156 C   0  0  0  0  0  0  0  0  0  0  0  0
   25.3061    5.8153    2.5185 N   0  0  0  0  0  0  0  0  0  0  0  0
   32.5647   10.9229   -0.2151 C   0  0  2  0  0  0  0  0  0  0  0  0
   33.7006   11.8896   -0.2623 N   0  0  0  0  0  0  0  0  0  0  0  0
   31.3114   11.6365   -0.9197 C   0  0  0  0  0  0  0  0  0  0  0  0
   30.0680   10.6712   -0.9356 C   0  0  2  0  0  0  0  0  0  0  0  0
   28.9067   11.3212   -1.5608 N   0  0  0  0  0  0  0  0  0  0  0  0
   29.6822   10.2737    0.5032 C   0  0  2  0  0  0  0  0  0  0  0  0
   30.8993    9.5701    1.2288 C   0  0  2  0  0  0  0  0  0  0  0  0
   30.4292    9.2247    2.5849 O   0  0  0  0  0  0  0  0  0  0  0  0
   32.1371   10.6022    1.2898 C   0  0  1  0  0  0  0  0  0  0  0  0
   33.1941    9.9679    1.9381 O   0  0  0  0  0  0  0  0  0  0  0  0
   29.8097    9.9964    3.4118 C   0  0  1  0  0  0  0  0  0  0  0  0
   29.9055    9.5934    4.9128 C   0  0  2  0  0  0  0  0  0  0  0  0
   28.8271    8.7628    5.2077 O   0  0  0  0  0  0  0  0  0  0  0  0
   29.7413   10.9296    5.5092 C   0  0  1  0  0  0  0  0  0  0  0  0
   30.5182   11.9547    4.6266 C   0  0  2  0  0  0  0  0  0  0  0  0
   30.2200   11.4019    3.3680 O   0  0  0  0  0  0  0  0  0  0  0  0
   31.9875   12.2238    4.9547 C   0  0  0  0  0  0  0  0  0  0  0  0
   32.3917   13.2901    4.1166 O   0  0  0  0  0  0  0  0  0  0  0  0
   27.8537   12.4311    5.9630 C   0  0  2  0  0  0  0  0  0  0  0  0
   28.2673   11.1979    5.5485 O   0  0  0  0  0  0  0  0  0  0  0  0
   28.5580   12.8720    7.2122 C   0  0  1  0  0  0  0  0  0  0  0  0
   23.4976   15.1106    6.4383 N   0  0  0  0  0  0  0  0  0  0  0  0
   35.7552   13.5515   -0.0866 O   0  0  0  0  0  0  0  0  0  0  0  0
   27.9966   14.2768    7.6613 C   0  0  2  0  0  0  0  0  0  0  0  0
   26.4456   14.2903    7.8918 C   0  0  1  0  0  0  0  0  0  0  0  0
   25.7904   13.8724    6.6746 C   0  0  1  0  0  0  0  0  0  0  0  0
   26.3135   12.5228    6.2208 O   0  0  0  0  0  0  0  0  0  0  0  0
   24.2123   13.8290    6.8765 C   0  0  0  0  0  0  0  0  0  0  0  0
   28.3169   11.9522    8.2525 N   0  0  0  0  0  0  0  0  0  0  0  0
   25.9509   11.0119    2.9801 O   0  0  0  0  0  0  0  0  0  0  0  0
   36.9141   12.2938   -1.5816 C   0  0  0  0  0  0  0  0  0  0  0  0
   26.1974   13.5398    8.7241 O   0  0  0  0  0  0  0  0  0  0  0  0
   28.2132   15.0337    6.8226 O   0  0  0  0  0  0  0  0  0  0  0  0
   34.5974   11.8255   -1.4625 C   0  0  0  0  0  0  0  0  0  0  0  0
   37.8798   13.2287   -1.8806 C   0  0  0  0  0  0  0  0  0  0  0  0
   35.7664   12.9378   -1.3737 C   0  0  1  0  0  0  0  0  0  0  0  0
   24.3016    9.2498    1.8505 F   0  0  0  0  0  0  0  0  0  0  0  0
  1  2  1  1  0  0  0
  1 10  1  0  0  0  0
  1  3  1  0  0  0  0
  3  4  1  1  0  0  0
  3  6  1  0  0  0  0
  5 46  2  0  0  0  0
  6 42  1  1  0  0  0
  6  8  1  0  0  0  0
  7 47  1  0  0  0  0
  8  9  1  0  0  0  0
  8 49  1  6  0  0  0
  9 10  1  0  0  0  0
  9 11  1  6  0  0  0
 11 12  1  0  0  0  0
 13 14  1  1  0  0  0
 13 15  1  0  0  0  0
 13 21  1  0  0  0  0
 14 46  1  0  0  0  0
 15 16  1  0  0  0  0
 16 17  1  1  0  0  0
 16 18  1  0  0  0  0
 18  2  1  6  0  0  0
 18 19  1  0  0  0  0
 19 20  1  1  0  0  0
 19 21  1  0  0  0  0
 21 22  1  1  0  0  0
 23 20  1  6  0  0  0
 23 24  1  0  0  0  0
 23 28  1  0  0  0  0
 24 25  1  1  0  0  0
 24 26  1  0  0  0  0
 26 27  1  0  0  0  0
 26 32  1  6  0  0  0
 27 28  1  0  0  0  0
 27 29  1  1  0  0  0
 29 30  1  0  0  0  0
 31 32  1  1  0  0  0
 31 33  1  0  0  0  0
 31 39  1  0  0  0  0
 33 36  1  0  0  0  0
 33 41  1  1  0  0  0
 34 40  1  0  0  0  0
 35 48  1  0  0  0  0
 36 37  1  0  0  0  0
 36 45  1  6  0  0  0
 37 38  1  0  0  0  0
 37 44  1  1  0  0  0
 38 39  1  0  0  0  0
 38 40  1  1  0  0  0
 43 47  1  0  0  0  0
 46 48  1  0  0  0  0
 48 43  1  1  0  0  0
M  END
>  <CHROM.1>
-60.62763088,-67.47485854,-70.80909799,-90.14802114,-48.24348374,-157.64212798
-174.74895621,-173.25126947,-46.56937576,94.63052278,172.98109786,-76.93180886
-172.27154934,29.51986028,11.27869968,2.66932549,2.62196458,0.39774036,0.97609281

>  <Name>
ligand

>  <RI>
0

>  <Rbt.Current_Directory>
/home/itssahil/PROJECTS/Mol_Feturizer/New_Systems/rnas/4PDQ

>  <Rbt.Executable>
rbdock ($Id: //depot/dev/client3/rdock/2013.1/src/exe/rbdock.cxx#4 $)

>  <Rbt.Library>
libRbt.so (2013.1, Build901 2013/11/27)

>  <Rbt.Parameter_File>
/export/apps/rDock/src/rDock_2013.1_src/data/scripts/dock_solv.prm

>  <Rbt.Receptor>
prm/pocket_docking_5.prm

>  <SCORE>
-9.15544

>  <SCORE.INTER>
-1.68931

>  <SCORE.INTER.CONST>
1

>  <SCORE.INTER.POLAR>
0

>  <SCORE.INTER.ROT>
13

>  <SCORE.INTER.SOLV>
22.1852

>  <SCORE.INTER.VDW>
-20.7879

>  <SCORE.INTER.norm>
-0.0344756

>  <SCORE.INTRA>
-7.47849

>  <SCORE.INTRA.DIHEDRAL>
-22.4083

>  <SCORE.INTRA.DIHEDRAL.0>
34.5115

>  <SCORE.INTRA.POLAR>
0

>  <SCORE.INTRA.POLAR.0>
0

>  <SCORE.INTRA.REPUL>
0

>  <SCORE.INTRA.REPUL.0>
0

>  <SCORE.INTRA.SOLV>
1.57206

>  <SCORE.INTRA.SOLV.lig_0>
-122.812

>  <SCORE.INTRA.VDW>
2.93962

>  <SCORE.INTRA.VDW.0>
-7.46208

>  <SCORE.INTRA.norm>
-0.152622

>  <SCORE.RESTR>
0.0123582

>  <SCORE.RESTR.CAVITY>
0.0123582

>  <SCORE.RESTR.norm>
0.000252209

>  <SCORE.SYSTEM>
0

>  <SCORE.SYSTEM.CONST>
0

>  <SCORE.SYSTEM.DIHEDRAL>
0

>  <SCORE.SYSTEM.SOLV>
0

>  <SCORE.SYSTEM.norm>
0

>  <SCORE.heavy>
49

>  <SCORE.norm>
-0.186846

>  <RMSD>
4.248

$$$$
ligand
 OpenBabel11021811513D
libRbt.so/2013.1/901 2013/11/27
 49 52  0  0  0  0  0  0  0  0999 V2000
   28.0488    8.0423    1.2964 C   0  0  2  0  0  0  0  0  0  0  0  0
   28.9654    7.8230    0.2650 O   0  0  0  0  0  0  0  0  0  0  0  0
   27.2273    6.7270    1.5652 C   0  0  2  0  0  0  0  0  0  0  0  0
   28.1866    5.6076    1.9379 N   0  0  0  0  0  0  0  0  0  0  0  0
   35.4333   10.2021    0.6449 O   0  0  0  0  0  0  0  0  0  0  0  0
   26.3825    6.3564    0.3239 C   0  0  2  0  0  0  0  0  0  0  0  0
   37.7937   13.7700   -2.5152 N   0  0  0  0  0  0  0  0  0  0  0  0
   25.4361    7.5096   -0.0449 C   0  0  2  0  0  0  0  0  0  0  0  0
   26.2298    8.8560   -0.3219 C   0  0  2  0  0  0  0  0  0  0  0  0
   27.0894    9.1531    0.9082 O   0  0  0  0  0  0  0  0  0  0  0  0
   25.2617   10.0321   -0.6401 C   0  0  0  0  0  0  0  0  0  0  0  0
   25.9213   11.2434   -0.9743 N   0  0  0  0  0  0  0  0  0  0  0  0
   32.7711    9.7736   -0.4523 C   0  0  2  0  0  0  0  0  0  0  0  0
   33.8248   10.5683   -1.1487 N   0  0  0  0  0  0  0  0  0  0  0  0
   32.1626    8.7532   -1.5316 C   0  0  0  0  0  0  0  0  0  0  0  0
   31.0532    7.8526   -0.8708 C   0  0  2  0  0  0  0  0  0  0  0  0
   30.4735    6.9269   -1.8551 N   0  0  0  0  0  0  0  0  0  0  0  0
   29.9183    8.7309   -0.3072 C   0  0  2  0  0  0  0  0  0  0  0  0
   30.4860    9.7529    0.7587 C   0  0  2  0  0  0  0  0  0  0  0  0
   29.3296   10.5347    1.2393 O   0  0  0  0  0  0  0  0  0  0  0  0
   31.5716   10.7055    0.0408 C   0  0  1  0  0  0  0  0  0  0  0  0
   32.0528   11.6017    0.9922 O   0  0  0  0  0  0  0  0  0  0  0  0
   29.2078   11.1173    2.3832 C   0  0  1  0  0  0  0  0  0  0  0  0
   29.0938   10.1707    3.6143 C   0  0  2  0  0  0  0  0  0  0  0  0
   27.7435    9.9130    3.8387 O   0  0  0  0  0  0  0  0  0  0  0  0
   29.6521   11.0720    4.6361 C   0  0  1  0  0  0  0  0  0  0  0  0
   30.8404   11.8547    3.9968 C   0  0  2  0  0  0  0  0  0  0  0  0
   30.2875   12.0488    2.7181 O   0  0  0  0  0  0  0  0  0  0  0  0
   32.2388   11.2414    4.0811 C   0  0  0  0  0  0  0  0  0  0  0  0
   33.1095   12.1496    3.4332 O   0  0  0  0  0  0  0  0  0  0  0  0
   28.8276   12.9973    5.9155 C   0  0  2  0  0  0  0  0  0  0  0  0
   28.5318   11.9692    5.0676 O   0  0  0  0  0  0  0  0  0  0  0  0
   29.1820   12.5109    7.2899 C   0  0  1  0  0  0  0  0  0  0  0  0
   25.3891   15.5443    7.4222 N   0  0  0  0  0  0  0  0  0  0  0  0
   36.0918   11.1951   -2.7050 O   0  0  0  0  0  0  0  0  0  0  0  0
   29.4611   13.7492    8.2274 C   0  0  2  0  0  0  0  0  0  0  0  0
   28.2629   14.7572    8.3121 C   0  0  1  0  0  0  0  0  0  0  0  0
   27.9473   15.2181    6.9804 C   0  0  1  0  0  0  0  0  0  0  0  0
   27.6747   14.0450    6.0581 O   0  0  0  0  0  0  0  0  0  0  0  0
   26.7050   16.2125    7.0135 C   0  0  0  0  0  0  0  0  0  0  0  0
   28.1062   11.7826    7.8365 N   0  0  0  0  0  0  0  0  0  0  0  0
   25.7655    5.4232    0.5579 O   0  0  0  0  0  0  0  0  0  0  0  0
   35.8295   12.8504   -1.1718 C   0  0  0  0  0  0  0  0  0  0  0  0
   27.3532   14.2022    8.7388 O   0  0  0  0  0  0  0  0  0  0  0  0
   30.3538   14.3317    7.7949 O   0  0  0  0  0  0  0  0  0  0  0  0
   35.1461   10.7020   -0.4521 C   0  0  0  0  0  0  0  0  0  0  0  0
   36.9430   13.6310   -1.3883 C   0  0  0  0  0  0  0  0  0  0  0  0
   36.1812   11.5755   -1.3336 C   0  0  1  0  0  0  0  0  0  0  0  0
   24.5322    7.7424    1.0068 F   0  0  0  0  0  0  0  0  0  0  0  0
  1  2  1  6  0  0  0
  1 10  1  0  0  0  0
  1  3  1  0  0  0  0
  3  4  1  6  0  0  0
  3  6  1  0  0  0  0
  5 46  2  0  0  0  0
  6 42  1  1  0  0  0
  6  8  1  0  0  0  0
  7 47  1  0  0  0  0
  8  9  1  0  0  0  0
  8 49  1  1  0  0  0
  9 10  1  0  0  0  0
  9 11  1  1  0  0  0
 11 12  1  0  0  0  0
 13 14  1  6  0  0  0
 13 15  1  0  0  0  0
 13 21  1  0  0  0  0
 14 46  1  0  0  0  0
 15 16  1  0  0  0  0
 16 17  1  6  0  0  0
 16 18  1  0  0  0  0
 18  2  1  1  0  0  0
 18 19  1  0  0  0  0
 19 20  1  6  0  0  0
 19 21  1  0  0  0  0
 21 22  1  1  0  0  0
 23 20  1  6  0  0  0
 23 24  1  0  0  0  0
 23 28  1  0  0  0  0
 24 25  1  1  0  0  0
 24 26  1  0  0  0  0
 26 27  1  0  0  0  0
 26 32  1  6  0  0  0
 27 28  1  0  0  0  0
 27 29  1  6  0  0  0
 29 30  1  0  0  0  0
 31 32  1  6  0  0  0
 31 33  1  0  0  0  0
 31 39  1  0  0  0  0
 33 36  1  0  0  0  0
 33 41  1  1  0  0  0
 34 40  1  0  0  0  0
 35 48  1  0  0  0  0
 36 37  1  0  0  0  0
 36 45  1  6  0  0  0
 37 38  1  0  0  0  0
 37 44  1  6  0  0  0
 38 39  1  0  0  0  0
 38 40  1  1  0  0  0
 43 47  1  0  0  0  0
 46 48  1  0  0  0  0
 48 43  1  6  0  0  0
M  END
>  <CHROM.1>
-179.73827707,153.73753150,-176.44927352,-132.01053678,153.65683202,-68.10831106
-173.25966987,-179.88808321,-69.80399175,-66.68167341,58.85068558,-86.15920985
136.68004307,29.88432829,10.82447860,2.24027169,0.89215882,-0.41950959,-2.25983407

>  <Name>
ligand

>  <RI>
0

>  <Rbt.Current_Directory>
/home/itssahil/PROJECTS/Mol_Feturizer/New_Systems/rnas/4PDQ

>  <Rbt.Executable>
rbdock ($Id: //depot/dev/client3/rdock/2013.1/src/exe/rbdock.cxx#4 $)

>  <Rbt.Library>
libRbt.so (2013.1, Build901 2013/11/27)

>  <Rbt.Parameter_File>
/export/apps/rDock/src/rDock_2013.1_src/data/scripts/dock_solv.prm

>  <Rbt.Receptor>
prm/pocket_docking_5.prm

>  <SCORE>
-13.9114

>  <SCORE.INTER>
-3.40108

>  <SCORE.INTER.CONST>
1

>  <SCORE.INTER.POLAR>
0

>  <SCORE.INTER.ROT>
13

>  <SCORE.INTER.SOLV>
17.9813

>  <SCORE.INTER.VDW>
-20.5278

>  <SCORE.INTER.norm>
-0.0694098

>  <SCORE.INTRA>
-10.5597

>  <SCORE.INTRA.DIHEDRAL>
-23.1488

>  <SCORE.INTRA.DIHEDRAL.0>
34.5115

>  <SCORE.INTRA.POLAR>
0

>  <SCORE.INTRA.POLAR.0>
0

>  <SCORE.INTRA.REPUL>
0

>  <SCORE.INTRA.REPUL.0>
0

>  <SCORE.INTRA.SOLV>
-0.850795

>  <SCORE.INTRA.SOLV.lig_0>
-122.812

>  <SCORE.INTRA.VDW>
1.44005

>  <SCORE.INTRA.VDW.0>
-7.46208

>  <SCORE.INTRA.norm>
-0.215505

>  <SCORE.RESTR>
0.0494287

>  <SCORE.RESTR.CAVITY>
0.0494287

>  <SCORE.RESTR.norm>
0.00100875

>  <SCORE.SYSTEM>
0

>  <SCORE.SYSTEM.CONST>
0

>  <SCORE.SYSTEM.DIHEDRAL>
0

>  <SCORE.SYSTEM.SOLV>
0

>  <SCORE.SYSTEM.norm>
0

>  <SCORE.heavy>
49

>  <SCORE.norm>
-0.283906

>  <RMSD>
4.251

$$$$
ligand
 OpenBabel11021811513D
libRbt.so/2013.1/901 2013/11/27
 49 52  0  0  0  0  0  0  0  0999 V2000
   29.4012   10.9720   -0.1539 C   0  0  2  0  0  0  0  0  0  0  0  0
   30.3787   11.1329    0.8313 O   0  0  0  0  0  0  0  0  0  0  0  0
   27.9727   10.9976    0.5064 C   0  0  2  0  0  0  0  0  0  0  0  0
   27.7821   12.3209    1.2310 N   0  0  0  0  0  0  0  0  0  0  0  0
   36.8918    9.6430    2.2227 O   0  0  0  0  0  0  0  0  0  0  0  0
   27.8020    9.7982    1.4677 C   0  0  2  0  0  0  0  0  0  0  0  0
   41.3453   11.5915    1.4155 N   0  0  0  0  0  0  0  0  0  0  0  0
   28.0186    8.4745    0.7177 C   0  0  2  0  0  0  0  0  0  0  0  0
   29.4506    8.4125    0.0356 C   0  0  2  0  0  0  0  0  0  0  0  0
   29.5941    9.6430   -0.8619 O   0  0  0  0  0  0  0  0  0  0  0  0
   29.6416    7.0936   -0.7680 C   0  0  0  0  0  0  0  0  0  0  0  0
   29.5039    5.9191    0.0165 N   0  0  0  0  0  0  0  0  0  0  0  0
   34.6697   10.5608    0.5812 C   0  0  2  0  0  0  0  0  0  0  0  0
   36.0990   10.8335    0.2498 N   0  0  0  0  0  0  0  0  0  0  0  0
   33.8126   10.8821   -0.7373 C   0  0  0  0  0  0  0  0  0  0  0  0
   32.2856   10.5963   -0.4824 C   0  0  2  0  0  0  0  0  0  0  0  0
   31.4869   10.9063   -1.6773 N   0  0  0  0  0  0  0  0  0  0  0  0
   31.7675   11.4628    0.6829 C   0  0  2  0  0  0  0  0  0  0  0  0
   32.5955   11.1730    1.9995 C   0  0  2  0  0  0  0  0  0  0  0  0
   32.0215   12.0390    3.0484 O   0  0  0  0  0  0  0  0  0  0  0  0
   34.1441   11.5357    1.7318 C   0  0  1  0  0  0  0  0  0  0  0  0
   34.8536   11.2818    2.9030 O   0  0  0  0  0  0  0  0  0  0  0  0
   31.2717   11.6740    4.0319 C   0  0  1  0  0  0  0  0  0  0  0  0
   30.1257   10.6820    3.6755 C   0  0  2  0  0  0  0  0  0  0  0  0
   28.9909   11.4262    3.3620 O   0  0  0  0  0  0  0  0  0  0  0  0
   29.9959   10.0181    4.9833 C   0  0  1  0  0  0  0  0  0  0  0  0
   31.4262    9.8294    5.5767 C   0  0  2  0  0  0  0  0  0  0  0  0
   31.9827   11.0485    5.1495 O   0  0  0  0  0  0  0  0  0  0  0  0
   32.1849    8.5449    5.2400 C   0  0  0  0  0  0  0  0  0  0  0  0
   31.5133    7.4991    5.9168 O   0  0  0  0  0  0  0  0  0  0  0  0
   27.7927   10.6410    5.8674 C   0  0  2  0  0  0  0  0  0  0  0  0
   29.1311   10.9064    5.8256 O   0  0  0  0  0  0  0  0  0  0  0  0
   26.9966   11.6274    5.0648 C   0  0  1  0  0  0  0  0  0  0  0  0
   23.8405    9.7632    9.1640 N   0  0  0  0  0  0  0  0  0  0  0  0
   38.7100   10.5150   -0.7182 O   0  0  0  0  0  0  0  0  0  0  0  0
   25.4604   11.2924    5.1989 C   0  0  2  0  0  0  0  0  0  0  0  0
   24.9471   11.2744    6.6805 C   0  0  1  0  0  0  0  0  0  0  0  0
   25.7208   10.3121    7.4294 C   0  0  1  0  0  0  0  0  0  0  0  0
   27.2035   10.6121    7.3163 O   0  0  0  0  0  0  0  0  0  0  0  0
   25.2623   10.2916    8.9534 C   0  0  0  0  0  0  0  0  0  0  0  0
   27.2043   12.9310    5.5584 N   0  0  0  0  0  0  0  0  0  0  0  0
   26.7450    9.8161    1.9022 O   0  0  0  0  0  0  0  0  0  0  0  0
   38.8416   11.9254    1.0577 C   0  0  0  0  0  0  0  0  0  0  0  0
   25.1116   12.3165    7.1327 O   0  0  0  0  0  0  0  0  0  0  0  0
   25.2856   10.2374    4.7752 O   0  0  0  0  0  0  0  0  0  0  0  0
   37.1301   10.2969    1.1974 C   0  0  0  0  0  0  0  0  0  0  0  0
   40.1797   12.1952    0.8772 C   0  0  0  0  0  0  0  0  0  0  0  0
   38.6230   10.6613    0.6976 C   0  0  1  0  0  0  0  0  0  0  0  0
   27.0474    8.3298   -0.2889 F   0  0  0  0  0  0  0  0  0  0  0  0
  1  2  1  1  0  0  0
  1 10  1  0  0  0  0
  1  3  1  0  0  0  0
  3  4  1  1  0  0  0
  3  6  1  0  0  0  0
  5 46  2  0  0  0  0
  6 42  1  6  0  0  0
  6  8  1  0  0  0  0
  7 47  1  0  0  0  0
  8  9  1  0  0  0  0
  8 49  1  6  0  0  0
  9 10  1  0  0  0  0
  9 11  1  6  0  0  0
 11 12  1  0  0  0  0
 13 14  1  6  0  0  0
 13 15  1  0  0  0  0
 13 21  1  0  0  0  0
 14 46  1  0  0  0  0
 15 16  1  0  0  0  0
 16 17  1  6  0  0  0
 16 18  1  0  0  0  0
 18  2  1  1  0  0  0
 18 19  1  0  0  0  0
 19 20  1  1  0  0  0
 19 21  1  0  0  0  0
 21 22  1  1  0  0  0
 23 20  1  6  0  0  0
 23 24  1  0  0  0  0
 23 28  1  0  0  0  0
 24 25  1  1  0  0  0
 24 26  1  0  0  0  0
 26 27  1  0  0  0  0
 26 32  1  1  0  0  0
 27 28  1  0  0  0  0
 27 29  1  6  0  0  0
 29 30  1  0  0  0  0
 31 32  1  1  0  0  0
 31 33  1  0  0  0  0
 31 39  1  0  0  0  0
 33 36  1  0  0  0  0
 33 41  1  1  0  0  0
 34 40  1  0  0  0  0
 35 48  1  0  0  0  0
 36 37  1  0  0  0  0
 36 45  1  1  0  0  0
 37 38  1  0  0  0  0
 37 44  1  1  0  0  0
 38 39  1  0  0  0  0
 38 40  1  1  0  0  0
 43 47  1  0  0  0  0
 46 48  1  0  0  0  0
 48 43  1  6  0  0  0
M  END
>  <CHROM.1>
-164.85283297,-44.16340259,-58.84402349,-165.48257014,106.17327325,-44.71859057
94.66938614,-69.50462594,-105.53266724,66.78317864,-58.33751646,-71.67104538
138.95363430,30.79045483,10.47406043,2.79714740,2.72747213,0.12766631,1.35419398

>  <Name>
ligand

>  <RI>
0

>  <Rbt.Current_Directory>
/home/itssahil/PROJECTS/Mol_Feturizer/New_Systems/rnas/4PDQ

>  <Rbt.Executable>
rbdock ($Id: //depot/dev/client3/rdock/2013.1/src/exe/rbdock.cxx#4 $)

>  <Rbt.Library>
libRbt.so (2013.1, Build901 2013/11/27)

>  <Rbt.Parameter_File>
/export/apps/rDock/src/rDock_2013.1_src/data/scripts/dock_solv.prm

>  <Rbt.Receptor>
prm/pocket_docking_4.prm

>  <SCORE>
6.75556

>  <SCORE.INTER>
5.19742

>  <SCORE.INTER.CONST>
1

>  <SCORE.INTER.POLAR>
0

>  <SCORE.INTER.ROT>
13

>  <SCORE.INTER.SOLV>
19.8277

>  <SCORE.INTER.VDW>
-15.411

>  <SCORE.INTER.norm>
0.10607

>  <SCORE.INTRA>
0.924937

>  <SCORE.INTRA.DIHEDRAL>
-11.8534

>  <SCORE.INTRA.DIHEDRAL.0>
34.5115

>  <SCORE.INTRA.POLAR>
0

>  <SCORE.INTRA.POLAR.0>
0

>  <SCORE.INTRA.REPUL>
0

>  <SCORE.INTRA.REPUL.0>
0

>  <SCORE.INTRA.SOLV>
4.44033

>  <SCORE.INTRA.SOLV.lig_0>
-122.812

>  <SCORE.INTRA.VDW>
4.63148

>  <SCORE.INTRA.VDW.0>
-7.46208

>  <SCORE.INTRA.norm>
0.0188763

>  <SCORE.RESTR>
0.633201

>  <SCORE.RESTR.CAVITY>
0.633201

>  <SCORE.RESTR.norm>
0.0129225

>  <SCORE.SYSTEM>
0

>  <SCORE.SYSTEM.CONST>
0

>  <SCORE.SYSTEM.DIHEDRAL>
0

>  <SCORE.SYSTEM.SOLV>
0

>  <SCORE.SYSTEM.norm>
0

>  <SCORE.heavy>
49

>  <SCORE.norm>
0.137869

>  <RMSD>
4.265

$$$$
ligand
 OpenBabel11021811513D
libRbt.so/2013.1/901 2013/11/27
 49 52  0  0  0  0  0  0  0  0999 V2000
   26.2391    9.3246    2.6310 C   0  0  2  0  0  0  0  0  0  0  0  0
   27.5722    9.0172    2.9145 O   0  0  0  0  0  0  0  0  0  0  0  0
   25.9743   10.8500    2.9146 C   0  0  2  0  0  0  0  0  0  0  0  0
   26.9061   11.6865    2.0518 N   0  0  0  0  0  0  0  0  0  0  0  0
   33.1831    7.7956   -0.3604 O   0  0  0  0  0  0  0  0  0  0  0  0
   26.1667   11.1598    4.4175 C   0  0  2  0  0  0  0  0  0  0  0  0
   36.2589   12.2916   -1.0205 N   0  0  0  0  0  0  0  0  0  0  0  0
   25.2296   10.2891    5.2691 C   0  0  2  0  0  0  0  0  0  0  0  0
   25.4665    8.7413    5.0084 C   0  0  2  0  0  0  0  0  0  0  0  0
   25.3190    8.4927    3.5062 O   0  0  0  0  0  0  0  0  0  0  0  0
   24.4767    7.8675    5.8322 C   0  0  0  0  0  0  0  0  0  0  0  0
   23.1114    8.1040    5.5258 N   0  0  0  0  0  0  0  0  0  0  0  0
   31.6958    9.3362    1.6117 C   0  0  2  0  0  0  0  0  0  0  0  0
   32.9016    9.8591    0.9048 N   0  0  0  0  0  0  0  0  0  0  0  0
   30.5031    9.2956    0.5381 C   0  0  0  0  0  0  0  0  0  0  0  0
   29.1905    8.7294    1.1974 C   0  0  2  0  0  0  0  0  0  0  0  0
   28.0845    8.7061    0.2288 N   0  0  0  0  0  0  0  0  0  0  0  0
   28.7691    9.6107    2.3902 C   0  0  2  0  0  0  0  0  0  0  0  0
   29.9263    9.6755    3.4671 C   0  0  2  0  0  0  0  0  0  0  0  0
   29.4252   10.5294    4.5622 O   0  0  0  0  0  0  0  0  0  0  0  0
   31.2382   10.3191    2.7844 C   0  0  1  0  0  0  0  0  0  0  0  0
   32.2413   10.3747    3.7490 O   0  0  0  0  0  0  0  0  0  0  0  0
   29.0769   10.1506    5.7446 C   0  0  1  0  0  0  0  0  0  0  0  0
   30.2052    9.5166    6.6104 C   0  0  2  0  0  0  0  0  0  0  0  0
   30.1942    8.1405    6.3955 O   0  0  0  0  0  0  0  0  0  0  0  0
   29.6805    9.8628    7.9418 C   0  0  1  0  0  0  0  0  0  0  0  0
   29.0699   11.2963    7.8659 C   0  0  2  0  0  0  0  0  0  0  0  0
   28.4995   11.2035    6.5835 O   0  0  0  0  0  0  0  0  0  0  0  0
   29.9847   12.4879    8.1524 C   0  0  0  0  0  0  0  0  0  0  0  0
   30.9416   12.5124    7.1101 O   0  0  0  0  0  0  0  0  0  0  0  0
   28.2645    8.7120    9.5831 C   0  0  2  0  0  0  0  0  0  0  0  0
   28.6629    8.8163    8.2817 O   0  0  0  0  0  0  0  0  0  0  0  0
   27.2244    7.6471    9.7712 C   0  0  1  0  0  0  0  0  0  0  0  0
   26.4983   11.5210   13.6122 N   0  0  0  0  0  0  0  0  0  0  0  0
   35.5336    8.7147   -1.5887 O   0  0  0  0  0  0  0  0  0  0  0  0
   26.7744    7.6166   11.2834 C   0  0  2  0  0  0  0  0  0  0  0  0
   26.2293    8.9909   11.8057 C   0  0  1  0  0  0  0  0  0  0  0  0
   27.2499    9.9962   11.6234 C   0  0  1  0  0  0  0  0  0  0  0  0
   27.7008   10.0455   10.1758 O   0  0  0  0  0  0  0  0  0  0  0  0
   26.7229   11.4200   12.1008 C   0  0  0  0  0  0  0  0  0  0  0  0
   26.0914    7.9344    8.9838 N   0  0  0  0  0  0  0  0  0  0  0  0
   25.9295   12.2622    4.6043 O   0  0  0  0  0  0  0  0  0  0  0  0
   34.3600   10.6577   -1.5030 C   0  0  0  0  0  0  0  0  0  0  0  0
   25.3103    9.2765   11.1801 O   0  0  0  0  0  0  0  0  0  0  0  0
   27.6935    7.3594   11.9255 O   0  0  0  0  0  0  0  0  0  0  0  0
   33.5613    8.9423   -0.0816 C   0  0  0  0  0  0  0  0  0  0  0  0
   34.9182   11.8279   -1.0394 C   0  0  0  0  0  0  0  0  0  0  0  0
   34.8388    9.6532   -0.7702 C   0  0  1  0  0  0  0  0  0  0  0  0
   23.8897   10.5850    4.9616 F   0  0  0  0  0  0  0  0  0  0  0  0
  1  2  1  1  0  0  0
  1 10  1  0  0  0  0
  1  3  1  0  0  0  0
  3  4  1  6  0  0  0
  3  6  1  0  0  0  0
  5 46  2  0  0  0  0
  6 42  1  6  0  0  0
  6  8  1  0  0  0  0
  7 47  1  0  0  0  0
  8  9  1  0  0  0  0
  8 49  1  6  0  0  0
  9 10  1  0  0  0  0
  9 11  1  1  0  0  0
 11 12  1  0  0  0  0
 13 14  1  6  0  0  0
 13 15  1  0  0  0  0
 13 21  1  0  0  0  0
 14 46  1  0  0  0  0
 15 16  1  0  0  0  0
 16 17  1  6  0  0  0
 16 18  1  0  0  0  0
 18  2  1  1  0  0  0
 18 19  1  0  0  0  0
 19 20  1  1  0  0  0
 19 21  1  0  0  0  0
 21 22  1  1  0  0  0
 23 20  1  6  0  0  0
 23 24  1  0  0  0  0
 23 28  1  0  0  0  0
 24 25  1  1  0  0  0
 24 26  1  0  0  0  0
 26 27  1  0  0  0  0
 26 32  1  6  0  0  0
 27 28  1  0  0  0  0
 27 29  1  6  0  0  0
 29 30  1  0  0  0  0
 31 32  1  6  0  0  0
 31 33  1  0  0  0  0
 31 39  1  0  0  0  0
 33 36  1  0  0  0  0
 33 41  1  6  0  0  0
 34 40  1  0  0  0  0
 35 48  1  0  0  0  0
 36 37  1  0  0  0  0
 36 45  1  1  0  0  0
 37 38  1  0  0  0  0
 37 44  1  6  0  0  0
 38 39  1  0  0  0  0
 38 40  1  6  0  0  0
 43 47  1  0  0  0  0
 46 48  1  0  0  0  0
 48 43  1  6  0  0  0
M  END
>  <CHROM.1>
-56.11888046,-94.35400155,60.56483705,-72.17465085,108.69838440,62.69517880
164.23348863,65.91072277,178.74035971,67.77865532,64.39664222,-120.04029947
-7.34042629,28.85239902,9.78703592,5.15055783,0.98782523,-0.12230888,-1.60456602

>  <Name>
ligand

>  <RI>
0

>  <Rbt.Current_Directory>
/home/itssahil/PROJECTS/Mol_Feturizer/New_Systems/rnas/4PDQ

>  <Rbt.Executable>
rbdock ($Id: //depot/dev/client3/rdock/2013.1/src/exe/rbdock.cxx#4 $)

>  <Rbt.Library>
libRbt.so (2013.1, Build901 2013/11/27)

>  <Rbt.Parameter_File>
/export/apps/rDock/src/rDock_2013.1_src/data/scripts/dock_solv.prm

>  <Rbt.Receptor>
prm/pocket_docking_3.prm

>  <SCORE>
-3.32204

>  <SCORE.INTER>
3.10984

>  <SCORE.INTER.CONST>
1

>  <SCORE.INTER.POLAR>
0

>  <SCORE.INTER.ROT>
13

>  <SCORE.INTER.SOLV>
15.2587

>  <SCORE.INTER.VDW>
-15.2797

>  <SCORE.INTER.norm>
0.0634661

>  <SCORE.INTRA>
-6.52652

>  <SCORE.INTRA.DIHEDRAL>
-15.6528

>  <SCORE.INTRA.DIHEDRAL.0>
34.5115

>  <SCORE.INTRA.POLAR>
0

>  <SCORE.INTRA.POLAR.0>
0

>  <SCORE.INTRA.REPUL>
0

>  <SCORE.INTRA.REPUL.0>
0

>  <SCORE.INTRA.SOLV>
2.88475

>  <SCORE.INTRA.SOLV.lig_0>
-122.812

>  <SCORE.INTRA.VDW>
-0.142473

>  <SCORE.INTRA.VDW.0>
-7.46208

>  <SCORE.INTRA.norm>
-0.133194

>  <SCORE.RESTR>
0.0946422

>  <SCORE.RESTR.CAVITY>
0.0946422

>  <SCORE.RESTR.norm>
0.00193147

>  <SCORE.SYSTEM>
0

>  <SCORE.SYSTEM.CONST>
0

>  <SCORE.SYSTEM.DIHEDRAL>
0

>  <SCORE.SYSTEM.SOLV>
0

>  <SCORE.SYSTEM.norm>
0

>  <SCORE.heavy>
49

>  <SCORE.norm>
-0.0677968

>  <RMSD>
4.269

$$$$
ligand
 OpenBabel11021811513D
libRbt.so/2013.1/901 2013/11/27
 49 52  0  0  0  0  0  0  0  0999 V2000
   27.3174    8.3216    0.5220 C   0  0  2  0  0  0  0  0  0  0  0  0
   28.3869    8.1876    1.4109 O   0  0  0  0  0  0  0  0  0  0  0  0
   26.3475    9.4543    1.0253 C   0  0  2  0  0  0  0  0  0  0  0  0
   27.1182   10.7612    1.1280 N   0  0  0  0  0  0  0  0  0  0  0  0
   34.6817    9.0464   -0.2750 O   0  0  0  0  0  0  0  0  0  0  0  0
   25.7192    9.0616    2.3828 C   0  0  2  0  0  0  0  0  0  0  0  0
   37.2238    8.2984    1.3922 N   0  0  0  0  0  0  0  0  0  0  0  0
   24.9634    7.7293    2.2588 C   0  0  2  0  0  0  0  0  0  0  0  0
   25.9103    6.5610    1.7508 C   0  0  2  0  0  0  0  0  0  0  0  0
   26.5487    7.0152    0.4369 O   0  0  0  0  0  0  0  0  0  0  0  0
   25.1259    5.2287    1.5745 C   0  0  0  0  0  0  0  0  0  0  0  0
   24.8085    4.5838    2.7982 N   0  0  0  0  0  0  0  0  0  0  0  0
   32.5619    9.3225    1.7011 C   0  0  2  0  0  0  0  0  0  0  0  0
   33.7806   10.1836    1.6828 N   0  0  0  0  0  0  0  0  0  0  0  0
   31.7062    9.6923    0.3943 C   0  0  0  0  0  0  0  0  0  0  0  0
   30.4065    8.8071    0.3210 C   0  0  2  0  0  0  0  0  0  0  0  0
   29.6034    9.1507   -0.8618 N   0  0  0  0  0  0  0  0  0  0  0  0
   29.5379    9.0290    1.5753 C   0  0  2  0  0  0  0  0  0  0  0  0
   30.3544    8.6771    2.8839 C   0  0  2  0  0  0  0  0  0  0  0  0
   29.4400    8.9133    4.0185 O   0  0  0  0  0  0  0  0  0  0  0  0
   31.6443    9.6416    2.9687 C   0  0  1  0  0  0  0  0  0  0  0  0
   32.3444    9.3221    4.1294 O   0  0  0  0  0  0  0  0  0  0  0  0
   29.3696    8.2352    5.1131 C   0  0  1  0  0  0  0  0  0  0  0  0
   30.2523    6.9537    5.1714 C   0  0  2  0  0  0  0  0  0  0  0  0
   29.4923    5.8831    4.7068 O   0  0  0  0  0  0  0  0  0  0  0  0
   30.4482    6.8889    6.6293 C   0  0  1  0  0  0  0  0  0  0  0  0
   30.6402    8.3434    7.1591 C   0  0  2  0  0  0  0  0  0  0  0  0
   29.7069    8.9853    6.3252 O   0  0  0  0  0  0  0  0  0  0  0  0
   32.0586    8.9132    7.2093 C   0  0  0  0  0  0  0  0  0  0  0  0
   32.7911    8.0761    8.0842 O   0  0  0  0  0  0  0  0  0  0  0  0
   29.0329    6.2844    8.5411 C   0  0  2  0  0  0  0  0  0  0  0  0
   29.2288    6.2231    7.1916 O   0  0  0  0  0  0  0  0  0  0  0  0
   28.2650    5.1019    9.0541 C   0  0  1  0  0  0  0  0  0  0  0  0
   27.2384    9.3901   12.3360 N   0  0  0  0  0  0  0  0  0  0  0  0
   35.5776   12.2787    0.5978 O   0  0  0  0  0  0  0  0  0  0  0  0
   28.0314    5.2632   10.6064 C   0  0  2  0  0  0  0  0  0  0  0  0
   27.2905    6.5888   10.9970 C   0  0  1  0  0  0  0  0  0  0  0  0
   28.0524    7.7112   10.5018 C   0  0  1  0  0  0  0  0  0  0  0  0
   28.2914    7.5798    9.0096 O   0  0  0  0  0  0  0  0  0  0  0  0
   27.3132    9.0799   10.8382 C   0  0  0  0  0  0  0  0  0  0  0  0
   27.0046    5.0358    8.4270 N   0  0  0  0  0  0  0  0  0  0  0  0
   24.9895    9.8796    2.7065 O   0  0  0  0  0  0  0  0  0  0  0  0
   36.5958   10.7188    1.8978 C   0  0  0  0  0  0  0  0  0  0  0  0
   26.2591    6.5884   10.4932 O   0  0  0  0  0  0  0  0  0  0  0  0
   29.0593    5.2942   11.1219 O   0  0  0  0  0  0  0  0  0  0  0  0
   34.7855    9.9153    0.6025 C   0  0  0  0  0  0  0  0  0  0  0  0
   37.4487    9.6441    1.7812 C   0  0  0  0  0  0  0  0  0  0  0  0
   36.0364   10.9330    0.7076 C   0  0  1  0  0  0  0  0  0  0  0  0
   23.9037    7.8632    1.3442 F   0  0  0  0  0  0  0  0  0  0  0  0
  1  2  1  1  0  0  0
  1 10  1  0  0  0  0
  1  3  1  0  0  0  0
  3  4  1  1  0  0  0
  3  6  1  0  0  0  0
  5 46  2  0  0  0  0
  6 42  1  6  0  0  0
  6  8  1  0  0  0  0
  7 47  1  0  0  0  0
  8  9  1  0  0  0  0
  8 49  1  6  0  0  0
  9 10  1  0  0  0  0
  9 11  1  6  0  0  0
 11 12  1  0  0  0  0
 13 14  1  1  0  0  0
 13 15  1  0  0  0  0
 13 21  1  0  0  0  0
 14 46  1  0  0  0  0
 15 16  1  0  0  0  0
 16 17  1  6  0  0  0
 16 18  1  0  0  0  0
 18  2  1  6  0  0  0
 18 19  1  0  0  0  0
 19 20  1  1  0  0  0
 19 21  1  0  0  0  0
 21 22  1  1  0  0  0
 23 20  1  6  0  0  0
 23 24  1  0  0  0  0
 23 28  1  0  0  0  0
 24 25  1  1  0  0  0
 24 26  1  0  0  0  0
 26 27  1  0  0  0  0
 26 32  1  1  0  0  0
 27 28  1  0  0  0  0
 27 29  1  6  0  0  0
 29 30  1  0  0  0  0
 31 32  1  6  0  0  0
 31 33  1  0  0  0  0
 31 39  1  0  0  0  0
 33 36  1  0  0  0  0
 33 41  1  6  0  0  0
 34 40  1  0  0  0  0
 35 48  1  0  0  0  0
 36 37  1  0  0  0  0
 36 45  1  1  0  0  0
 37 38  1  0  0  0  0
 37 44  1  6  0  0  0
 38 39  1  0  0  0  0
 38 40  1  6  0  0  0
 43 47  1  0  0  0  0
 46 48  1  0  0  0  0
 48 43  1  1  0  0  0
M  END
>  <CHROM.1>
-75.97402206,-70.79849303,-74.83744245,-67.92492408,144.25734448,-6.34715675
-166.83740189,-60.99219693,-151.36998415,66.22832374,-59.04116080,-157.18529447
120.02893599,29.65175991,8.17237415,4.38267656,0.94055576,-0.23763187,-1.38410620

>  <Name>
ligand

>  <RI>
0

>  <Rbt.Current_Directory>
/home/itssahil/PROJECTS/Mol_Feturizer/New_Systems/rnas/4PDQ

>  <Rbt.Executable>
rbdock ($Id: //depot/dev/client3/rdock/2013.1/src/exe/rbdock.cxx#4 $)

>  <Rbt.Library>
libRbt.so (2013.1, Build901 2013/11/27)

>  <Rbt.Parameter_File>
/export/apps/rDock/src/rDock_2013.1_src/data/scripts/dock_solv.prm

>  <Rbt.Receptor>
prm/pocket_docking_5.prm

>  <SCORE>
-3.70897

>  <SCORE.INTER>
-0.745719

>  <SCORE.INTER.CONST>
1

>  <SCORE.INTER.POLAR>
0

>  <SCORE.INTER.ROT>
13

>  <SCORE.INTER.SOLV>
17.7353

>  <SCORE.INTER.VDW>
-18.6756

>  <SCORE.INTER.norm>
-0.0152188

>  <SCORE.INTRA>
-2.96325

>  <SCORE.INTRA.DIHEDRAL>
-13.553

>  <SCORE.INTRA.DIHEDRAL.0>
34.5115

>  <SCORE.INTRA.POLAR>
0

>  <SCORE.INTRA.POLAR.0>
0

>  <SCORE.INTRA.REPUL>
0

>  <SCORE.INTRA.REPUL.0>
0

>  <SCORE.INTRA.SOLV>
1.89717

>  <SCORE.INTRA.SOLV.lig_0>
-122.812

>  <SCORE.INTRA.VDW>
2.86469

>  <SCORE.INTRA.VDW.0>
-7.46208

>  <SCORE.INTRA.norm>
-0.0604745

>  <SCORE.RESTR>
0

>  <SCORE.RESTR.CAVITY>
0

>  <SCORE.RESTR.norm>
0

>  <SCORE.SYSTEM>
0

>  <SCORE.SYSTEM.CONST>
0

>  <SCORE.SYSTEM.DIHEDRAL>
0

>  <SCORE.SYSTEM.SOLV>
0

>  <SCORE.SYSTEM.norm>
0

>  <SCORE.heavy>
49

>  <SCORE.norm>
-0.0756933

>  <RMSD>
4.331

$$$$
ligand
 OpenBabel11021811513D
libRbt.so/2013.1/901 2013/11/27
 49 52  0  0  0  0  0  0  0  0999 V2000
   26.9446    8.5530    0.2515 C   0  0  2  0  0  0  0  0  0  0  0  0
   27.2120    9.8099    0.7998 O   0  0  0  0  0  0  0  0  0  0  0  0
   25.4639    8.5098   -0.2803 C   0  0  2  0  0  0  0  0  0  0  0  0
   25.2790    9.5956   -1.3288 N   0  0  0  0  0  0  0  0  0  0  0  0
   33.4171   10.8509   -1.4330 O   0  0  0  0  0  0  0  0  0  0  0  0
   24.4663    8.6791    0.8893 C   0  0  2  0  0  0  0  0  0  0  0  0
   37.5234   13.9804   -1.7784 N   0  0  0  0  0  0  0  0  0  0  0  0
   24.6856    7.5835    1.9443 C   0  0  2  0  0  0  0  0  0  0  0  0
   26.1711    7.5946    2.5037 C   0  0  2  0  0  0  0  0  0  0  0  0
   27.1206    7.4789    1.3099 O   0  0  0  0  0  0  0  0  0  0  0  0
   26.4012    6.4478    3.5302 C   0  0  0  0  0  0  0  0  0  0  0  0
   25.4762    6.4473    4.6064 N   0  0  0  0  0  0  0  0  0  0  0  0
   31.4890   10.5197    0.7229 C   0  0  2  0  0  0  0  0  0  0  0  0
   32.7913   11.2288    0.8916 N   0  0  0  0  0  0  0  0  0  0  0  0
   30.4792   11.5529    0.0235 C   0  0  0  0  0  0  0  0  0  0  0  0
   29.0788   10.8746   -0.2158 C   0  0  2  0  0  0  0  0  0  0  0  0
   28.1381   11.8179   -0.8380 N   0  0  0  0  0  0  0  0  0  0  0  0
   28.4769   10.4055    1.1238 C   0  0  2  0  0  0  0  0  0  0  0  0
   29.4513    9.3872    1.8426 C   0  0  2  0  0  0  0  0  0  0  0  0
   28.7859    8.9956    3.1009 O   0  0  0  0  0  0  0  0  0  0  0  0
   30.8547   10.1264    2.1348 C   0  0  1  0  0  0  0  0  0  0  0  0
   31.6944    9.2174    2.7738 O   0  0  0  0  0  0  0  0  0  0  0  0
   28.5795    9.7392    4.1339 C   0  0  1  0  0  0  0  0  0  0  0  0
   27.8895    9.0402    5.3422 C   0  0  2  0  0  0  0  0  0  0  0  0
   26.5130    9.2062    5.2099 O   0  0  0  0  0  0  0  0  0  0  0  0
   28.4367    9.8785    6.4220 C   0  0  1  0  0  0  0  0  0  0  0  0
   29.9245   10.2003    6.0810 C   0  0  2  0  0  0  0  0  0  0  0  0
   29.7804   10.3658    4.6917 O   0  0  0  0  0  0  0  0  0  0  0  0
   31.0041    9.2356    6.5737 C   0  0  0  0  0  0  0  0  0  0  0  0
   32.2190    9.6701    5.9925 O   0  0  0  0  0  0  0  0  0  0  0  0
   28.1891   12.3018    6.7213 C   0  0  2  0  0  0  0  0  0  0  0  0
   27.5774   11.1049    6.4832 O   0  0  0  0  0  0  0  0  0  0  0  0
   28.6765   12.4149    8.1357 C   0  0  1  0  0  0  0  0  0  0  0  0
   27.4794   17.4723    6.4302 N   0  0  0  0  0  0  0  0  0  0  0  0
   35.9290   11.2805    0.7599 O   0  0  0  0  0  0  0  0  0  0  0  0
   29.3244   13.8372    8.3538 C   0  0  2  0  0  0  0  0  0  0  0  0
   28.3559   15.0266    8.0280 C   0  0  1  0  0  0  0  0  0  0  0  0
   27.9086   14.9016    6.6606 C   0  0  1  0  0  0  0  0  0  0  0  0
   27.2813   13.5408    6.4244 O   0  0  0  0  0  0  0  0  0  0  0  0
   26.8864   16.0665    6.2988 C   0  0  0  0  0  0  0  0  0  0  0  0
   27.5955   12.2852    9.0307 N   0  0  0  0  0  0  0  0  0  0  0  0
   23.4003    8.6035    0.4841 O   0  0  0  0  0  0  0  0  0  0  0  0
   35.5737   12.4606   -1.1483 C   0  0  0  0  0  0  0  0  0  0  0  0
   27.4466   14.9535    8.7247 O   0  0  0  0  0  0  0  0  0  0  0  0
   30.2211   13.9354    7.6400 O   0  0  0  0  0  0  0  0  0  0  0  0
   33.6797   11.3132   -0.3136 C   0  0  0  0  0  0  0  0  0  0  0  0
   36.6273   13.3129   -0.9043 C   0  0  0  0  0  0  0  0  0  0  0  0
   35.0401   12.1177    0.0234 C   0  0  1  0  0  0  0  0  0  0  0  0
   24.4395    6.3192    1.3802 F   0  0  0  0  0  0  0  0  0  0  0  0
  1  2  1  1  0  0  0
  1 10  1  0  0  0  0
  1  3  1  0  0  0  0
  3  4  1  6  0  0  0
  3  6  1  0  0  0  0
  5 46  2  0  0  0  0
  6 42  1  6  0  0  0
  6  8  1  0  0  0  0
  7 47  1  0  0  0  0
  8  9  1  0  0  0  0
  8 49  1  6  0  0  0
  9 10  1  0  0  0  0
  9 11  1  1  0  0  0
 11 12  1  0  0  0  0
 13 14  1  1  0  0  0
 13 15  1  0  0  0  0
 13 21  1  0  0  0  0
 14 46  1  0  0  0  0
 15 16  1  0  0  0  0
 16 17  1  1  0  0  0
 16 18  1  0  0  0  0
 18  2  1  6  0  0  0
 18 19  1  0  0  0  0
 19 20  1  1  0  0  0
 19 21  1  0  0  0  0
 21 22  1  6  0  0  0
 23 20  1  6  0  0  0
 23 24  1  0  0  0  0
 23 28  1  0  0  0  0
 24 25  1  6  0  0  0
 24 26  1  0  0  0  0
 26 27  1  0  0  0  0
 26 32  1  6  0  0  0
 27 28  1  0  0  0  0
 27 29  1  6  0  0  0
 29 30  1  0  0  0  0
 31 32  1  1  0  0  0
 31 33  1  0  0  0  0
 31 39  1  0  0  0  0
 33 36  1  0  0  0  0
 33 41  1  1  0  0  0
 34 40  1  0  0  0  0
 35 48  1  0  0  0  0
 36 37  1  0  0  0  0
 36 45  1  6  0  0  0
 37 38  1  0  0  0  0
 37 44  1  1  0  0  0
 38 39  1  0  0  0  0
 38 40  1  1  0  0  0
 43 47  1  0  0  0  0
 46 48  1  0  0  0  0
 48 43  1  6  0  0  0
M  END
>  <CHROM.1>
-164.52852096,77.19432656,-54.82177959,-80.12821569,-69.00560927,-178.12927771
-141.26358514,172.94784839,-71.34919780,60.46637468,-179.29306273,-69.21623092
-104.15008042,29.10487301,10.78735772,3.19920007,2.62784455,0.46733121,1.01657988

>  <Name>
ligand

>  <RI>
0

>  <Rbt.Current_Directory>
/home/itssahil/PROJECTS/Mol_Feturizer/New_Systems/rnas/4PDQ

>  <Rbt.Executable>
rbdock ($Id: //depot/dev/client3/rdock/2013.1/src/exe/rbdock.cxx#4 $)

>  <Rbt.Library>
libRbt.so (2013.1, Build901 2013/11/27)

>  <Rbt.Parameter_File>
/export/apps/rDock/src/rDock_2013.1_src/data/scripts/dock_solv.prm

>  <Rbt.Receptor>
prm/pocket_docking_5.prm

>  <SCORE>
-13.405

>  <SCORE.INTER>
-5.18107

>  <SCORE.INTER.CONST>
1

>  <SCORE.INTER.POLAR>
0

>  <SCORE.INTER.ROT>
13

>  <SCORE.INTER.SOLV>
26.5298

>  <SCORE.INTER.VDW>
-24.564

>  <SCORE.INTER.norm>
-0.105736

>  <SCORE.INTRA>
-8.22393

>  <SCORE.INTRA.DIHEDRAL>
-23.7724

>  <SCORE.INTRA.DIHEDRAL.0>
34.5115

>  <SCORE.INTRA.POLAR>
0

>  <SCORE.INTRA.POLAR.0>
0

>  <SCORE.INTRA.REPUL>
0

>  <SCORE.INTRA.REPUL.0>
0

>  <SCORE.INTRA.SOLV>
0.32114

>  <SCORE.INTRA.SOLV.lig_0>
-122.812

>  <SCORE.INTRA.VDW>
3.50168

>  <SCORE.INTRA.VDW.0>
-7.46208

>  <SCORE.INTRA.norm>
-0.167835

>  <SCORE.RESTR>
0

>  <SCORE.RESTR.CAVITY>
0

>  <SCORE.RESTR.norm>
0

>  <SCORE.SYSTEM>
0

>  <SCORE.SYSTEM.CONST>
0

>  <SCORE.SYSTEM.DIHEDRAL>
0

>  <SCORE.SYSTEM.SOLV>
0

>  <SCORE.SYSTEM.norm>
0

>  <SCORE.heavy>
49

>  <SCORE.norm>
-0.273572

>  <RMSD>
4.482

$$$$
ligand
 OpenBabel11021811513D
libRbt.so/2013.1/901 2013/11/27
 49 52  0  0  0  0  0  0  0  0999 V2000
   27.1406    7.6881    3.8471 C   0  0  2  0  0  0  0  0  0  0  0  0
   27.9148    7.0049    2.9059 O   0  0  0  0  0  0  0  0  0  0  0  0
   25.6228    7.3192    3.6544 C   0  0  2  0  0  0  0  0  0  0  0  0
   25.4505    5.8170    3.8165 N   0  0  0  0  0  0  0  0  0  0  0  0
   34.6439    6.0151    3.2345 O   0  0  0  0  0  0  0  0  0  0  0  0
   25.1232    7.7985    2.2715 C   0  0  2  0  0  0  0  0  0  0  0  0
   34.2869    5.1858   -0.7604 N   0  0  0  0  0  0  0  0  0  0  0  0
   25.3258    9.3147    2.1239 C   0  0  2  0  0  0  0  0  0  0  0  0
   26.8471    9.7260    2.3140 C   0  0  2  0  0  0  0  0  0  0  0  0
   27.3113    9.1860    3.6679 O   0  0  0  0  0  0  0  0  0  0  0  0
   27.0360   11.2677    2.2184 C   0  0  0  0  0  0  0  0  0  0  0  0
   28.3892   11.6861    2.3061 N   0  0  0  0  0  0  0  0  0  0  0  0
   32.0947    6.4463    1.8964 C   0  0  2  0  0  0  0  0  0  0  0  0
   33.4139    6.6657    1.2341 N   0  0  0  0  0  0  0  0  0  0  0  0
   30.9777    6.4922    0.7447 C   0  0  0  0  0  0  0  0  0  0  0  0
   29.5485    6.2437    1.3561 C   0  0  2  0  0  0  0  0  0  0  0  0
   28.5137    6.3035    0.3133 N   0  0  0  0  0  0  0  0  0  0  0  0
   29.2277    7.3159    2.4166 C   0  0  2  0  0  0  0  0  0  0  0  0
   30.3142    7.3002    3.5665 C   0  0  2  0  0  0  0  0  0  0  0  0
   29.9156    8.3483    4.5268 O   0  0  0  0  0  0  0  0  0  0  0  0
   31.7581    7.6218    2.9238 C   0  0  1  0  0  0  0  0  0  0  0  0
   32.6980    7.6113    3.9515 O   0  0  0  0  0  0  0  0  0  0  0  0
   29.2918    8.1818    5.6430 C   0  0  1  0  0  0  0  0  0  0  0  0
   29.9661    7.2094    6.6550 C   0  0  2  0  0  0  0  0  0  0  0  0
   29.4643    5.9304    6.4265 O   0  0  0  0  0  0  0  0  0  0  0  0
   29.4349    7.7869    7.9009 C   0  0  1  0  0  0  0  0  0  0  0  0
   29.4293    9.3398    7.7531 C   0  0  2  0  0  0  0  0  0  0  0  0
   29.0473    9.4110    6.4013 O   0  0  0  0  0  0  0  0  0  0  0  0
   30.6789   10.1112    8.1803 C   0  0  0  0  0  0  0  0  0  0  0  0
   31.7177    9.6933    7.3149 O   0  0  0  0  0  0  0  0  0  0  0  0
   27.4137    7.4676    9.2559 C   0  0  2  0  0  0  0  0  0  0  0  0
   28.0607    7.2164    8.0804 O   0  0  0  0  0  0  0  0  0  0  0  0
   26.0448    6.8541    9.2887 C   0  0  1  0  0  0  0  0  0  0  0  0
   25.7785   11.6585    9.9656 N   0  0  0  0  0  0  0  0  0  0  0  0
   36.9986    7.2079    2.0467 O   0  0  0  0  0  0  0  0  0  0  0  0
   25.3374    7.2259   10.6494 C   0  0  2  0  0  0  0  0  0  0  0  0
   25.2348    8.7697   10.9042 C   0  0  1  0  0  0  0  0  0  0  0  0
   26.5633    9.3352   10.8776 C   0  0  1  0  0  0  0  0  0  0  0  0
   27.2661    8.9913    9.5780 O   0  0  0  0  0  0  0  0  0  0  0  0
   26.5036   10.9115   11.0888 C   0  0  0  0  0  0  0  0  0  0  0  0
   25.2612    7.3654    8.2347 N   0  0  0  0  0  0  0  0  0  0  0  0
   24.0107    7.5560    2.1724 O   0  0  0  0  0  0  0  0  0  0  0  0
   36.3534    5.4932    0.7038 C   0  0  0  0  0  0  0  0  0  0  0  0
   24.6156    9.2354   10.0572 O   0  0  0  0  0  0  0  0  0  0  0  0
   25.9639    6.7893   11.5097 O   0  0  0  0  0  0  0  0  0  0  0  0
   34.6393    6.4039    2.0578 C   0  0  0  0  0  0  0  0  0  0  0  0
   35.6727    5.2951   -0.4767 C   0  0  0  0  0  0  0  0  0  0  0  0
   35.9829    6.6726    1.2011 C   0  0  1  0  0  0  0  0  0  0  0  0
   24.5639    9.9960    3.0896 F   0  0  0  0  0  0  0  0  0  0  0  0
  1  2  1  6  0  0  0
  1 10  1  0  0  0  0
  1  3  1  0  0  0  0
  3  4  1  6  0  0  0
  3  6  1  0  0  0  0
  5 46  2  0  0  0  0
  6 42  1  1  0  0  0
  6  8  1  0  0  0  0
  7 47  1  0  0  0  0
  8  9  1  0  0  0  0
  8 49  1  1  0  0  0
  9 10  1  0  0  0  0
  9 11  1  1  0  0  0
 11 12  1  0  0  0  0
 13 14  1  6  0  0  0
 13 15  1  0  0  0  0
 13 21  1  0  0  0  0
 14 46  1  0  0  0  0
 15 16  1  0  0  0  0
 16 17  1  6  0  0  0
 16 18  1  0  0  0  0
 18  2  1  1  0  0  0
 18 19  1  0  0  0  0
 19 20  1  1  0  0  0
 19 21  1  0  0  0  0
 21 22  1  1  0  0  0
 23 20  1  6  0  0  0
 23 24  1  0  0  0  0
 23 28  1  0  0  0  0
 24 25  1  6  0  0  0
 24 26  1  0  0  0  0
 26 27  1  0  0  0  0
 26 32  1  6  0  0  0
 27 28  1  0  0  0  0
 27 29  1  6  0  0  0
 29 30  1  0  0  0  0
 31 32  1  6  0  0  0
 31 33  1  0  0  0  0
 31 39  1  0  0  0  0
 33 36  1  0  0  0  0
 33 41  1  6  0  0  0
 34 40  1  0  0  0  0
 35 48  1  0  0  0  0
 36 37  1  0  0  0  0
 36 45  1  1  0  0  0
 37 38  1  0  0  0  0
 37 44  1  6  0  0  0
 38 39  1  0  0  0  0
 38 40  1  6  0  0  0
 43 47  1  0  0  0  0
 46 48  1  0  0  0  0
 48 43  1  1  0  0  0
M  END
>  <CHROM.1>
158.24367555,-177.84729848,-176.63493285,-168.46954015,99.71712130,56.36075492
171.98835000,63.98630351,179.17225635,-64.21627043,-61.84400502,-154.83775348
-35.77379350,29.05758563,7.90885949,4.94072631,2.35185541,-0.19485439,1.47242645

>  <Name>
ligand

>  <RI>
0

>  <Rbt.Current_Directory>
/home/itssahil/PROJECTS/Mol_Feturizer/New_Systems/rnas/4PDQ

>  <Rbt.Executable>
rbdock ($Id: //depot/dev/client3/rdock/2013.1/src/exe/rbdock.cxx#4 $)

>  <Rbt.Library>
libRbt.so (2013.1, Build901 2013/11/27)

>  <Rbt.Parameter_File>
/export/apps/rDock/src/rDock_2013.1_src/data/scripts/dock_solv.prm

>  <Rbt.Receptor>
prm/pocket_docking_5.prm

>  <SCORE>
-11.7342

>  <SCORE.INTER>
-3.31473

>  <SCORE.INTER.CONST>
1

>  <SCORE.INTER.POLAR>
0

>  <SCORE.INTER.ROT>
13

>  <SCORE.INTER.SOLV>
13.8769

>  <SCORE.INTER.VDW>
-19.1021

>  <SCORE.INTER.norm>
-0.0676475

>  <SCORE.INTRA>
-8.41942

>  <SCORE.INTRA.DIHEDRAL>
-22.52

>  <SCORE.INTRA.DIHEDRAL.0>
34.5115

>  <SCORE.INTRA.POLAR>
0

>  <SCORE.INTRA.POLAR.0>
0

>  <SCORE.INTRA.REPUL>
0

>  <SCORE.INTRA.REPUL.0>
0

>  <SCORE.INTRA.SOLV>
2.07391

>  <SCORE.INTRA.SOLV.lig_0>
-122.812

>  <SCORE.INTRA.VDW>
1.80362

>  <SCORE.INTRA.VDW.0>
-7.46208

>  <SCORE.INTRA.norm>
-0.171825

>  <SCORE.RESTR>
0

>  <SCORE.RESTR.CAVITY>
0

>  <SCORE.RESTR.norm>
0

>  <SCORE.SYSTEM>
0

>  <SCORE.SYSTEM.CONST>
0

>  <SCORE.SYSTEM.DIHEDRAL>
0

>  <SCORE.SYSTEM.SOLV>
0

>  <SCORE.SYSTEM.norm>
0

>  <SCORE.heavy>
49

>  <SCORE.norm>
-0.239472

>  <RMSD>
4.543

$$$$
ligand
 OpenBabel11021811513D
libRbt.so/2013.1/901 2013/11/27
 49 52  0  0  0  0  0  0  0  0999 V2000
   26.7700    6.9079    1.1942 C   0  0  2  0  0  0  0  0  0  0  0  0
   27.2174    7.7260    2.2346 O   0  0  0  0  0  0  0  0  0  0  0  0
   25.2489    7.1951    0.9096 C   0  0  2  0  0  0  0  0  0  0  0  0
   25.0786    8.6608    0.5420 N   0  0  0  0  0  0  0  0  0  0  0  0
   33.6860    7.7770    0.3848 O   0  0  0  0  0  0  0  0  0  0  0  0
   24.3903    6.8183    2.1395 C   0  0  2  0  0  0  0  0  0  0  0  0
   36.0667   11.2665    0.1098 N   0  0  0  0  0  0  0  0  0  0  0  0
   24.5942    5.3393    2.5034 C   0  0  2  0  0  0  0  0  0  0  0  0
   26.1193    5.0105    2.7960 C   0  0  2  0  0  0  0  0  0  0  0  0
   26.9336    5.4480    1.5771 O   0  0  0  0  0  0  0  0  0  0  0  0
   26.3259    3.5003    3.1093 C   0  0  0  0  0  0  0  0  0  0  0  0
   26.0758    2.6460    2.0040 N   0  0  0  0  0  0  0  0  0  0  0  0
   31.5482    7.5398    2.3464 C   0  0  2  0  0  0  0  0  0  0  0  0
   32.9533    7.8910    2.7060 N   0  0  0  0  0  0  0  0  0  0  0  0
   30.8011    8.9117    1.9774 C   0  0  0  0  0  0  0  0  0  0  0  0
   29.3098    8.6293    1.5595 C   0  0  2  0  0  0  0  0  0  0  0  0
   28.6086    9.8811    1.2384 N   0  0  0  0  0  0  0  0  0  0  0  0
   28.5552    7.9347    2.7106 C   0  0  2  0  0  0  0  0  0  0  0  0
   29.2693    6.5785    3.1025 C   0  0  2  0  0  0  0  0  0  0  0  0
   28.4722    5.9925    4.1982 O   0  0  0  0  0  0  0  0  0  0  0  0
   30.7727    6.9026    3.5886 C   0  0  1  0  0  0  0  0  0  0  0  0
   31.3809    5.6988    3.9361 O   0  0  0  0  0  0  0  0  0  0  0  0
   28.2294    6.5200    5.3495 C   0  0  1  0  0  0  0  0  0  0  0  0
   29.4752    6.7983    6.2412 C   0  0  2  0  0  0  0  0  0  0  0  0
   29.6971    5.6770    7.0370 O   0  0  0  0  0  0  0  0  0  0  0  0
   28.9372    7.9228    7.0246 C   0  0  1  0  0  0  0  0  0  0  0  0
   28.0850    8.8160    6.0709 C   0  0  2  0  0  0  0  0  0  0  0  0
   27.5025    7.7909    5.3038 O   0  0  0  0  0  0  0  0  0  0  0  0
   28.7870    9.9512    5.3243 C   0  0  0  0  0  0  0  0  0  0  0  0
   29.3691   10.7768    6.3154 O   0  0  0  0  0  0  0  0  0  0  0  0
   27.5716    8.1627    9.0498 C   0  0  2  0  0  0  0  0  0  0  0  0
   28.1270    7.3190    8.1316 O   0  0  0  0  0  0  0  0  0  0  0  0
   26.9881    7.4216   10.2166 C   0  0  1  0  0  0  0  0  0  0  0  0
   25.2700   11.7915    7.5477 N   0  0  0  0  0  0  0  0  0  0  0  0
   36.0874    7.2082    2.5965 O   0  0  0  0  0  0  0  0  0  0  0  0
   26.3208    8.4509   11.2093 C   0  0  2  0  0  0  0  0  0  0  0  0
   25.2189    9.3450   10.5420 C   0  0  1  0  0  0  0  0  0  0  0  0
   25.8060   10.0546    9.4296 C   0  0  1  0  0  0  0  0  0  0  0  0
   26.4556    9.0863    8.4593 O   0  0  0  0  0  0  0  0  0  0  0  0
   24.7102   10.9437    8.6935 C   0  0  0  0  0  0  0  0  0  0  0  0
   25.9893    6.5319    9.7728 N   0  0  0  0  0  0  0  0  0  0  0  0
   23.2884    6.9971    1.8939 O   0  0  0  0  0  0  0  0  0  0  0  0
   36.0580    8.9140    1.0967 C   0  0  0  0  0  0  0  0  0  0  0  0
   24.3868    8.6595   10.1481 O   0  0  0  0  0  0  0  0  0  0  0  0
   27.1395    9.1635   11.5902 O   0  0  0  0  0  0  0  0  0  0  0  0
   33.9423    7.9707    1.5816 C   0  0  0  0  0  0  0  0  0  0  0  0
   35.7173   10.2466    1.0320 C   0  0  0  0  0  0  0  0  0  0  0  0
   35.4098    8.3716    2.1268 C   0  0  1  0  0  0  0  0  0  0  0  0
   24.1655    4.5216    1.4428 F   0  0  0  0  0  0  0  0  0  0  0  0
  1  2  1  1  0  0  0
  1 10  1  0  0  0  0
  1  3  1  0  0  0  0
  3  4  1  1  0  0  0
  3  6  1  0  0  0  0
  5 46  2  0  0  0  0
  6 42  1  6  0  0  0
  6  8  1  0  0  0  0
  7 47  1  0  0  0  0
  8  9  1  0  0  0  0
  8 49  1  6  0  0  0
  9 10  1  0  0  0  0
  9 11  1  6  0  0  0
 11 12  1  0  0  0  0
 13 14  1  1  0  0  0
 13 15  1  0  0  0  0
 13 21  1  0  0  0  0
 14 46  1  0  0  0  0
 15 16  1  0  0  0  0
 16 17  1  1  0  0  0
 16 18  1  0  0  0  0
 18  2  1  6  0  0  0
 18 19  1  0  0  0  0
 19 20  1  1  0  0  0
 19 21  1  0  0  0  0
 21 22  1  6  0  0  0
 23 20  1  6  0  0  0
 23 24  1  0  0  0  0
 23 28  1  0  0  0  0
 24 25  1  1  0  0  0
 24 26  1  0  0  0  0
 26 27  1  0  0  0  0
 26 32  1  1  0  0  0
 27 28  1  0  0  0  0
 27 29  1  6  0  0  0
 29 30  1  0  0  0  0
 31 32  1  6  0  0  0
 31 33  1  0  0  0  0
 31 39  1  0  0  0  0
 33 36  1  0  0  0  0
 33 41  1  6  0  0  0
 34 40  1  0  0  0  0
 35 48  1  0  0  0  0
 36 37  1  0  0  0  0
 36 45  1  6  0  0  0
 37 38  1  0  0  0  0
 37 44  1  6  0  0  0
 38 39  1  0  0  0  0
 38 40  1  6  0  0  0
 43 47  1  0  0  0  0
 46 48  1  0  0  0  0
 48 43  1  6  0  0  0
M  END
>  <CHROM.1>
-170.98125777,65.59618905,66.75877955,-87.09342000,-59.99146924,-61.88958254
176.68281019,-57.76718309,-170.47422999,176.72697499,-176.92745587,-156.10047579
-97.39438670,28.52043812,7.72178993,4.53489667,0.69817728,-0.28990624,-1.90700299

>  <Name>
ligand

>  <RI>
0

>  <Rbt.Current_Directory>
/home/itssahil/PROJECTS/Mol_Feturizer/New_Systems/rnas/4PDQ

>  <Rbt.Executable>
rbdock ($Id: //depot/dev/client3/rdock/2013.1/src/exe/rbdock.cxx#4 $)

>  <Rbt.Library>
libRbt.so (2013.1, Build901 2013/11/27)

>  <Rbt.Parameter_File>
/export/apps/rDock/src/rDock_2013.1_src/data/scripts/dock_solv.prm

>  <Rbt.Receptor>
prm/pocket_docking_8.prm

>  <SCORE>
-10.2782

>  <SCORE.INTER>
3.25007

>  <SCORE.INTER.CONST>
1

>  <SCORE.INTER.POLAR>
0

>  <SCORE.INTER.ROT>
13

>  <SCORE.INTER.SOLV>
10.7802

>  <SCORE.INTER.VDW>
-13.6934

>  <SCORE.INTER.norm>
0.0663279

>  <SCORE.INTRA>
-13.5283

>  <SCORE.INTRA.DIHEDRAL>
-29.5119

>  <SCORE.INTRA.DIHEDRAL.0>
34.5115

>  <SCORE.INTRA.POLAR>
0

>  <SCORE.INTRA.POLAR.0>
0

>  <SCORE.INTRA.REPUL>
0

>  <SCORE.INTRA.REPUL.0>
0

>  <SCORE.INTRA.SOLV>
-0.830577

>  <SCORE.INTRA.SOLV.lig_0>
-122.812

>  <SCORE.INTRA.VDW>
1.64296

>  <SCORE.INTRA.VDW.0>
-7.46208

>  <SCORE.INTRA.norm>
-0.276087

>  <SCORE.RESTR>
0

>  <SCORE.RESTR.CAVITY>
0

>  <SCORE.RESTR.norm>
0

>  <SCORE.SYSTEM>
0

>  <SCORE.SYSTEM.CONST>
0

>  <SCORE.SYSTEM.DIHEDRAL>
0

>  <SCORE.SYSTEM.SOLV>
0

>  <SCORE.SYSTEM.norm>
0

>  <SCORE.heavy>
49

>  <SCORE.norm>
-0.209759

>  <RMSD>
4.629

$$$$
ligand
 OpenBabel11021811513D
libRbt.so/2013.1/901 2013/11/27
 49 52  0  0  0  0  0  0  0  0999 V2000
   26.7392    8.1023    2.8389 C   0  0  2  0  0  0  0  0  0  0  0  0
   28.0315    7.8572    3.3099 O   0  0  0  0  0  0  0  0  0  0  0  0
   26.5811    9.6295    2.4926 C   0  0  2  0  0  0  0  0  0  0  0  0
   27.6100   10.0110    1.4400 N   0  0  0  0  0  0  0  0  0  0  0  0
   34.5459    5.7277    3.1313 O   0  0  0  0  0  0  0  0  0  0  0  0
   26.7336   10.4898    3.7687 C   0  0  2  0  0  0  0  0  0  0  0  0
   37.7854    7.7071   -1.1282 N   0  0  0  0  0  0  0  0  0  0  0  0
   25.6972   10.0727    4.8240 C   0  0  2  0  0  0  0  0  0  0  0  0
   25.8248    8.5354    5.1981 C   0  0  2  0  0  0  0  0  0  0  0  0
   25.7218    7.7292    3.9021 O   0  0  0  0  0  0  0  0  0  0  0  0
   24.7370    8.1075    6.2253 C   0  0  0  0  0  0  0  0  0  0  0  0
   24.8332    6.7509    6.6309 N   0  0  0  0  0  0  0  0  0  0  0  0
   31.9260    6.4140    2.0637 C   0  0  2  0  0  0  0  0  0  0  0  0
   33.1287    6.2007    1.2063 N   0  0  0  0  0  0  0  0  0  0  0  0
   30.6390    6.1945    1.1300 C   0  0  0  0  0  0  0  0  0  0  0  0
   29.3173    6.3775    1.9655 C   0  0  2  0  0  0  0  0  0  0  0  0
   28.1304    6.1988    1.1163 N   0  0  0  0  0  0  0  0  0  0  0  0
   29.2643    7.7914    2.5779 C   0  0  2  0  0  0  0  0  0  0  0  0
   30.5234    8.0424    3.5024 C   0  0  2  0  0  0  0  0  0  0  0  0
   30.3753    9.4086    4.0416 O   0  0  0  0  0  0  0  0  0  0  0  0
   31.8600    7.9137    2.6089 C   0  0  1  0  0  0  0  0  0  0  0  0
   32.9550    8.1453    3.4378 O   0  0  0  0  0  0  0  0  0  0  0  0
   29.6429    9.7749    5.0377 C   0  0  1  0  0  0  0  0  0  0  0  0
   30.0689    9.2205    6.4290 C   0  0  2  0  0  0  0  0  0  0  0  0
   29.3916    8.0225    6.6435 O   0  0  0  0  0  0  0  0  0  0  0  0
   29.5347   10.3047    7.2699 C   0  0  1  0  0  0  0  0  0  0  0  0
   29.7871   11.6581    6.5362 C   0  0  2  0  0  0  0  0  0  0  0  0
   29.5342   11.2239    5.2224 O   0  0  0  0  0  0  0  0  0  0  0  0
   31.1034   12.3900    6.8021 C   0  0  0  0  0  0  0  0  0  0  0  0
   32.1162   11.6227    6.1790 O   0  0  0  0  0  0  0  0  0  0  0  0
   27.3574   10.8557    8.2594 C   0  0  2  0  0  0  0  0  0  0  0  0
   28.0774   10.0127    7.4629 O   0  0  0  0  0  0  0  0  0  0  0  0
   27.8816   10.8893    9.6648 C   0  0  1  0  0  0  0  0  0  0  0  0
   23.2176    9.5277    9.6058 N   0  0  0  0  0  0  0  0  0  0  0  0
   35.1930    4.7599   -0.1905 O   0  0  0  0  0  0  0  0  0  0  0  0
   26.9749   11.8400   10.5388 C   0  0  2  0  0  0  0  0  0  0  0  0
   25.4603   11.4341   10.5455 C   0  0  1  0  0  0  0  0  0  0  0  0
   24.9766   11.4183    9.1848 C   0  0  1  0  0  0  0  0  0  0  0  0
   25.8329   10.5105    8.3224 O   0  0  0  0  0  0  0  0  0  0  0  0
   23.4508   10.9677    9.1398 C   0  0  0  0  0  0  0  0  0  0  0  0
   27.8331    9.5987   10.2291 N   0  0  0  0  0  0  0  0  0  0  0  0
   26.5744   11.5889    3.4987 O   0  0  0  0  0  0  0  0  0  0  0  0
   35.8956    6.8498    0.3558 C   0  0  0  0  0  0  0  0  0  0  0  0
   25.3713   10.3770   10.9839 O   0  0  0  0  0  0  0  0  0  0  0  0
   27.0318   12.8988   10.0928 O   0  0  0  0  0  0  0  0  0  0  0  0
   34.4093    5.8561    1.9064 C   0  0  0  0  0  0  0  0  0  0  0  0
   37.0499    6.7461   -0.3876 C   0  0  0  0  0  0  0  0  0  0  0  0
   35.6111    5.6443    0.8469 C   0  0  1  0  0  0  0  0  0  0  0  0
   24.3983   10.2981    4.3349 F   0  0  0  0  0  0  0  0  0  0  0  0
  1  2  1  1  0  0  0
  1 10  1  0  0  0  0
  1  3  1  0  0  0  0
  3  4  1  6  0  0  0
  3  6  1  0  0  0  0
  5 46  2  0  0  0  0
  6 42  1  6  0  0  0
  6  8  1  0  0  0  0
  7 47  1  0  0  0  0
  8  9  1  0  0  0  0
  8 49  1  6  0  0  0
  9 10  1  0  0  0  0
  9 11  1  1  0  0  0
 11 12  1  0  0  0  0
 13 14  1  6  0  0  0
 13 15  1  0  0  0  0
 13 21  1  0  0  0  0
 14 46  1  0  0  0  0
 15 16  1  0  0  0  0
 16 17  1  6  0  0  0
 16 18  1  0  0  0  0
 18  2  1  1  0  0  0
 18 19  1  0  0  0  0
 19 20  1  6  0  0  0
 19 21  1  0  0  0  0
 21 22  1  1  0  0  0
 23 20  1  6  0  0  0
 23 24  1  0  0  0  0
 23 28  1  0  0  0  0
 24 25  1  1  0  0  0
 24 26  1  0  0  0  0
 26 27  1  0  0  0  0
 26 32  1  6  0  0  0
 27 28  1  0  0  0  0
 27 29  1  6  0  0  0
 29 30  1  0  0  0  0
 31 32  1  6  0  0  0
 31 33  1  0  0  0  0
 31 39  1  0  0  0  0
 33 36  1  0  0  0  0
 33 41  1  1  0  0  0
 34 40  1  0  0  0  0
 35 48  1  0  0  0  0
 36 37  1  0  0  0  0
 36 45  1  6  0  0  0
 37 38  1  0  0  0  0
 37 44  1  6  0  0  0
 38 39  1  0  0  0  0
 38 40  1  1  0  0  0
 43 47  1  0  0  0  0
 46 48  1  0  0  0  0
 48 43  1  6  0  0  0
M  END
>  <CHROM.1>
-74.59224735,-81.20428625,-177.94271764,-158.34551022,80.65856280,66.08525379
177.54836300,70.68250086,-60.81670135,-64.63437840,179.55943718,-69.99769485
129.56506844,29.09227954,8.99408506,4.92807688,2.35245679,0.02725091,1.05413832

>  <Name>
ligand

>  <RI>
0

>  <Rbt.Current_Directory>
/home/itssahil/PROJECTS/Mol_Feturizer/New_Systems/rnas/4PDQ

>  <Rbt.Executable>
rbdock ($Id: //depot/dev/client3/rdock/2013.1/src/exe/rbdock.cxx#4 $)

>  <Rbt.Library>
libRbt.so (2013.1, Build901 2013/11/27)

>  <Rbt.Parameter_File>
/export/apps/rDock/src/rDock_2013.1_src/data/scripts/dock_solv.prm

>  <Rbt.Receptor>
prm/pocket_docking_5.prm

>  <SCORE>
-13.079

>  <SCORE.INTER>
-0.370864

>  <SCORE.INTER.CONST>
1

>  <SCORE.INTER.POLAR>
0

>  <SCORE.INTER.ROT>
13

>  <SCORE.INTER.SOLV>
13.3091

>  <SCORE.INTER.VDW>
-16.9503

>  <SCORE.INTER.norm>
-0.00756865

>  <SCORE.INTRA>
-12.7081

>  <SCORE.INTRA.DIHEDRAL>
-27.2066

>  <SCORE.INTRA.DIHEDRAL.0>
34.5115

>  <SCORE.INTRA.POLAR>
0

>  <SCORE.INTRA.POLAR.0>
0

>  <SCORE.INTRA.REPUL>
0

>  <SCORE.INTRA.REPUL.0>
0

>  <SCORE.INTRA.SOLV>
2.52332

>  <SCORE.INTRA.SOLV.lig_0>
-122.812

>  <SCORE.INTRA.VDW>
-0.366503

>  <SCORE.INTRA.VDW.0>
-7.46208

>  <SCORE.INTRA.norm>
-0.259349

>  <SCORE.RESTR>
0

>  <SCORE.RESTR.CAVITY>
0

>  <SCORE.RESTR.norm>
0

>  <SCORE.SYSTEM>
0

>  <SCORE.SYSTEM.CONST>
0

>  <SCORE.SYSTEM.DIHEDRAL>
0

>  <SCORE.SYSTEM.SOLV>
0

>  <SCORE.SYSTEM.norm>
0

>  <SCORE.heavy>
49

>  <SCORE.norm>
-0.266918

>  <RMSD>
4.716

$$$$
ligand
 OpenBabel11021811513D
libRbt.so/2013.1/901 2013/11/27
 49 52  0  0  0  0  0  0  0  0999 V2000
   25.9685    8.1183    3.4995 C   0  0  2  0  0  0  0  0  0  0  0  0
   27.2140    8.4355    4.0473 O   0  0  0  0  0  0  0  0  0  0  0  0
   25.0519    9.3977    3.4884 C   0  0  2  0  0  0  0  0  0  0  0  0
   25.7278   10.4880    2.6718 N   0  0  0  0  0  0  0  0  0  0  0  0
   33.6153    8.2855    1.8789 O   0  0  0  0  0  0  0  0  0  0  0  0
   24.7677    9.8693    4.9336 C   0  0  2  0  0  0  0  0  0  0  0  0
   36.0064   12.0880   -1.1081 N   0  0  0  0  0  0  0  0  0  0  0  0
   24.1034    8.7451    5.7439 C   0  0  2  0  0  0  0  0  0  0  0  0
   24.9992    7.4351    5.7762 C   0  0  2  0  0  0  0  0  0  0  0  0
   25.2984    7.0380    4.3294 O   0  0  0  0  0  0  0  0  0  0  0  0
   24.2957    6.2835    6.5511 C   0  0  0  0  0  0  0  0  0  0  0  0
   25.0823    5.1083    6.6703 N   0  0  0  0  0  0  0  0  0  0  0  0
   31.2201    9.6081    2.8732 C   0  0  2  0  0  0  0  0  0  0  0  0
   32.3110   10.3258    2.1508 N   0  0  0  0  0  0  0  0  0  0  0  0
   30.1496    9.1481    1.7692 C   0  0  0  0  0  0  0  0  0  0  0  0
   28.9689    8.3567    2.4461 C   0  0  2  0  0  0  0  0  0  0  0  0
   27.9708    7.9471    1.4472 N   0  0  0  0  0  0  0  0  0  0  0  0
   28.2666    9.2405    3.4962 C   0  0  2  0  0  0  0  0  0  0  0  0
   29.2968    9.7154    4.5989 C   0  0  2  0  0  0  0  0  0  0  0  0
   28.5307   10.5416    5.5527 O   0  0  0  0  0  0  0  0  0  0  0  0
   30.4598   10.5783    3.8886 C   0  0  1  0  0  0  0  0  0  0  0  0
   31.3507   10.9931    4.8754 O   0  0  0  0  0  0  0  0  0  0  0  0
   28.4684   10.3939    6.8322 C   0  0  1  0  0  0  0  0  0  0  0  0
   29.8369   10.2801    7.5662 C   0  0  2  0  0  0  0  0  0  0  0  0
   30.1784    8.9317    7.6388 O   0  0  0  0  0  0  0  0  0  0  0  0
   29.4265   10.8081    8.8780 C   0  0  1  0  0  0  0  0  0  0  0  0
   28.4379   11.9908    8.6382 C   0  0  2  0  0  0  0  0  0  0  0  0
   27.7437   11.4520    7.5399 O   0  0  0  0  0  0  0  0  0  0  0  0
   29.0169   13.3987    8.4920 C   0  0  0  0  0  0  0  0  0  0  0  0
   29.8949   13.3529    7.3831 O   0  0  0  0  0  0  0  0  0  0  0  0
   28.4563    9.8613   10.9238 C   0  0  2  0  0  0  0  0  0  0  0  0
   28.7965    9.6661    9.6163 O   0  0  0  0  0  0  0  0  0  0  0  0
   28.0301    8.5874   11.5922 C   0  0  1  0  0  0  0  0  0  0  0  0
   26.1198   13.5939   11.9080 N   0  0  0  0  0  0  0  0  0  0  0  0
   35.7695    9.6757    0.7240 O   0  0  0  0  0  0  0  0  0  0  0  0
   27.6038    8.8944   13.0801 C   0  0  2  0  0  0  0  0  0  0  0  0
   26.4646    9.9653   13.2003 C   0  0  1  0  0  0  0  0  0  0  0  0
   26.9014   11.1835   12.5595 C   0  0  1  0  0  0  0  0  0  0  0  0
   27.3178   10.9150   11.1257 O   0  0  0  0  0  0  0  0  0  0  0  0
   25.7564   12.2873   12.6191 C   0  0  0  0  0  0  0  0  0  0  0  0
   26.9172    8.0400   10.9228 N   0  0  0  0  0  0  0  0  0  0  0  0
   24.0686   10.7729    4.9002 O   0  0  0  0  0  0  0  0  0  0  0  0
   34.0150   10.7536   -0.2351 C   0  0  0  0  0  0  0  0  0  0  0  0
   25.5370    9.5691   12.6526 O   0  0  0  0  0  0  0  0  0  0  0  0
   28.5178    9.3199   13.6340 O   0  0  0  0  0  0  0  0  0  0  0  0
   33.4840    9.5052    1.7040 C   0  0  0  0  0  0  0  0  0  0  0  0
   34.6621   11.8730   -0.7088 C   0  0  0  0  0  0  0  0  0  0  0  0
   34.5693   10.4180    0.9291 C   0  0  1  0  0  0  0  0  0  0  0  0
   22.8619    8.4127    5.1734 F   0  0  0  0  0  0  0  0  0  0  0  0
  1  2  1  1  0  0  0
  1 10  1  0  0  0  0
  1  3  1  0  0  0  0
  3  4  1  6  0  0  0
  3  6  1  0  0  0  0
  5 46  2  0  0  0  0
  6 42  1  6  0  0  0
  6  8  1  0  0  0  0
  7 47  1  0  0  0  0
  8  9  1  0  0  0  0
  8 49  1  6  0  0  0
  9 10  1  0  0  0  0
  9 11  1  6  0  0  0
 11 12  1  0  0  0  0
 13 14  1  6  0  0  0
 13 15  1  0  0  0  0
 13 21  1  0  0  0  0
 14 46  1  0  0  0  0
 15 16  1  0  0  0  0
 16 17  1  6  0  0  0
 16 18  1  0  0  0  0
 18  2  1  1  0  0  0
 18 19  1  0  0  0  0
 19 20  1  1  0  0  0
 19 21  1  0  0  0  0
 21 22  1  1  0  0  0
 23 20  1  6  0  0  0
 23 24  1  0  0  0  0
 23 28  1  0  0  0  0
 24 25  1  1  0  0  0
 24 26  1  0  0  0  0
 26 27  1  0  0  0  0
 26 32  1  1  0  0  0
 27 28  1  0  0  0  0
 27 29  1  6  0  0  0
 29 30  1  0  0  0  0
 31 32  1  6  0  0  0
 31 33  1  0  0  0  0
 31 39  1  0  0  0  0
 33 36  1  0  0  0  0
 33 41  1  6  0  0  0
 34 40  1  0  0  0  0
 35 48  1  0  0  0  0
 36 37  1  0  0  0  0
 36 45  1  1  0  0  0
 37 38  1  0  0  0  0
 37 44  1  6  0  0  0
 38 39  1  0  0  0  0
 38 40  1  6  0  0  0
 43 47  1  0  0  0  0
 46 48  1  0  0  0  0
 48 43  1  6  0  0  0
M  END
>  <CHROM.1>
-70.47343544,-77.30209719,-176.93393544,-91.85148560,126.59823286,50.92417195
173.17675208,59.47615721,-171.45480685,-177.60012654,63.54190247,-81.45211144
-11.08096283,28.53213748,9.82877114,6.15693367,0.95504684,-0.36064598,-1.79882666

>  <Name>
ligand

>  <RI>
0

>  <Rbt.Current_Directory>
/home/itssahil/PROJECTS/Mol_Feturizer/New_Systems/rnas/4PDQ

>  <Rbt.Executable>
rbdock ($Id: //depot/dev/client3/rdock/2013.1/src/exe/rbdock.cxx#4 $)

>  <Rbt.Library>
libRbt.so (2013.1, Build901 2013/11/27)

>  <Rbt.Parameter_File>
/export/apps/rDock/src/rDock_2013.1_src/data/scripts/dock_solv.prm

>  <Rbt.Receptor>
prm/pocket_docking_4.prm

>  <SCORE>
-11.7085

>  <SCORE.INTER>
-2.66334

>  <SCORE.INTER.CONST>
1

>  <SCORE.INTER.POLAR>
0

>  <SCORE.INTER.ROT>
13

>  <SCORE.INTER.SOLV>
14.6338

>  <SCORE.INTER.VDW>
-18.9202

>  <SCORE.INTER.norm>
-0.054354

>  <SCORE.INTRA>
-9.04518

>  <SCORE.INTRA.DIHEDRAL>
-21.4207

>  <SCORE.INTRA.DIHEDRAL.0>
34.5115

>  <SCORE.INTRA.POLAR>
0

>  <SCORE.INTRA.POLAR.0>
0

>  <SCORE.INTRA.REPUL>
0

>  <SCORE.INTRA.REPUL.0>
0

>  <SCORE.INTRA.SOLV>
0.265113

>  <SCORE.INTRA.SOLV.lig_0>
-122.812

>  <SCORE.INTRA.VDW>
1.53262

>  <SCORE.INTRA.VDW.0>
-7.46208

>  <SCORE.INTRA.norm>
-0.184596

>  <SCORE.RESTR>
0

>  <SCORE.RESTR.CAVITY>
0

>  <SCORE.RESTR.norm>
0

>  <SCORE.SYSTEM>
0

>  <SCORE.SYSTEM.CONST>
0

>  <SCORE.SYSTEM.DIHEDRAL>
0

>  <SCORE.SYSTEM.SOLV>
0

>  <SCORE.SYSTEM.norm>
0

>  <SCORE.heavy>
49

>  <SCORE.norm>
-0.238949

>  <RMSD>
4.735

$$$$
ligand
 OpenBabel11021811513D
libRbt.so/2013.1/901 2013/11/27
 49 52  0  0  0  0  0  0  0  0999 V2000
   29.2743    9.1617    2.0760 C   0  0  2  0  0  0  0  0  0  0  0  0
   29.9011   10.2775    2.6365 O   0  0  0  0  0  0  0  0  0  0  0  0
   27.8681    8.9483    2.7501 C   0  0  2  0  0  0  0  0  0  0  0  0
   27.0206   10.1933    2.5403 N   0  0  0  0  0  0  0  0  0  0  0  0
   34.6253   10.5574   -1.8238 O   0  0  0  0  0  0  0  0  0  0  0  0
   28.0348    8.6258    4.2534 C   0  0  2  0  0  0  0  0  0  0  0  0
   38.9161   13.6650   -0.5756 N   0  0  0  0  0  0  0  0  0  0  0  0
   28.9104    7.3768    4.4404 C   0  0  2  0  0  0  0  0  0  0  0  0
   30.3386    7.5541    3.7708 C   0  0  2  0  0  0  0  0  0  0  0  0
   30.1232    7.9236    2.3020 O   0  0  0  0  0  0  0  0  0  0  0  0
   31.1991    6.2656    3.9157 C   0  0  0  0  0  0  0  0  0  0  0  0
   30.7113    5.1632    3.1669 N   0  0  0  0  0  0  0  0  0  0  0  0
   33.8943   10.6673    0.9919 C   0  0  2  0  0  0  0  0  0  0  0  0
   35.1214   11.3124    0.4394 N   0  0  0  0  0  0  0  0  0  0  0  0
   32.6380   11.3328    0.2468 C   0  0  0  0  0  0  0  0  0  0  0  0
   31.2944   10.6890    0.7552 C   0  0  2  0  0  0  0  0  0  0  0  0
   30.1342   11.3047    0.0943 N   0  0  0  0  0  0  0  0  0  0  0  0
   31.1473   10.8916    2.2764 C   0  0  2  0  0  0  0  0  0  0  0  0
   32.3740   10.2496    3.0420 C   0  0  2  0  0  0  0  0  0  0  0  0
   32.1360   10.4888    4.4792 O   0  0  0  0  0  0  0  0  0  0  0  0
   33.7303   10.9714    2.5512 C   0  0  1  0  0  0  0  0  0  0  0  0
   34.7959   10.3988    3.2413 O   0  0  0  0  0  0  0  0  0  0  0  0
   31.1268   10.0900    5.1759 C   0  0  1  0  0  0  0  0  0  0  0  0
   31.4321    9.7235    6.6581 C   0  0  2  0  0  0  0  0  0  0  0  0
   31.7387    8.3660    6.7140 O   0  0  0  0  0  0  0  0  0  0  0  0
   30.1053   10.0049    7.2311 C   0  0  1  0  0  0  0  0  0  0  0  0
   29.5398   11.2850    6.5418 C   0  0  2  0  0  0  0  0  0  0  0  0
   30.0102   11.0359    5.2399 O   0  0  0  0  0  0  0  0  0  0  0  0
   29.8608   12.6439    7.1658 C   0  0  0  0  0  0  0  0  0  0  0  0
   29.2215   13.6126    6.3562 O   0  0  0  0  0  0  0  0  0  0  0  0
   29.1543    7.8686    7.9762 C   0  0  2  0  0  0  0  0  0  0  0  0
   29.2664    8.7896    6.9749 O   0  0  0  0  0  0  0  0  0  0  0  0
   28.5719    6.5743    7.4897 C   0  0  1  0  0  0  0  0  0  0  0  0
   25.9374    8.6164   11.0261 N   0  0  0  0  0  0  0  0  0  0  0  0
   36.9877   11.6650   -2.8553 O   0  0  0  0  0  0  0  0  0  0  0  0
   28.4237    5.5779    8.7043 C   0  0  2  0  0  0  0  0  0  0  0  0
   27.5543    6.1439    9.8802 C   0  0  1  0  0  0  0  0  0  0  0  0
   28.1393    7.3825   10.3373 C   0  0  1  0  0  0  0  0  0  0  0  0
   28.2932    8.3590    9.1867 O   0  0  0  0  0  0  0  0  0  0  0  0
   27.2628    8.0168   11.5045 C   0  0  0  0  0  0  0  0  0  0  0  0
   27.2902    6.7955    6.9469 N   0  0  0  0  0  0  0  0  0  0  0  0
   27.0047    8.4352    4.7104 O   0  0  0  0  0  0  0  0  0  0  0  0
   36.5028   13.2228   -1.2748 C   0  0  0  0  0  0  0  0  0  0  0  0
   26.4996    6.3562    9.4801 O   0  0  0  0  0  0  0  0  0  0  0  0
   29.4720    5.3785    9.1339 O   0  0  0  0  0  0  0  0  0  0  0  0
   35.3626   11.1631   -1.0332 C   0  0  0  0  0  0  0  0  0  0  0  0
   37.7195   13.8665   -1.3107 C   0  0  0  0  0  0  0  0  0  0  0  0
   36.7168   11.9237   -1.4794 C   0  0  1  0  0  0  0  0  0  0  0  0
   28.2864    6.2621    3.8526 F   0  0  0  0  0  0  0  0  0  0  0  0
  1  2  1  1  0  0  0
  1 10  1  0  0  0  0
  1  3  1  0  0  0  0
  3  4  1  1  0  0  0
  3  6  1  0  0  0  0
  5 46  2  0  0  0  0
  6 42  1  6  0  0  0
  6  8  1  0  0  0  0
  7 47  1  0  0  0  0
  8  9  1  0  0  0  0
  8 49  1  6  0  0  0
  9 10  1  0  0  0  0
  9 11  1  6  0  0  0
 11 12  1  0  0  0  0
 13 14  1  6  0  0  0
 13 15  1  0  0  0  0
 13 21  1  0  0  0  0
 14 46  1  0  0  0  0
 15 16  1  0  0  0  0
 16 17  1  6  0  0  0
 16 18  1  0  0  0  0
 18  2  1  1  0  0  0
 18 19  1  0  0  0  0
 19 20  1  1  0  0  0
 19 21  1  0  0  0  0
 21 22  1  1  0  0  0
 23 20  1  1  0  0  0
 23 24  1  0  0  0  0
 23 28  1  0  0  0  0
 24 25  1  6  0  0  0
 24 26  1  0  0  0  0
 26 27  1  0  0  0  0
 26 32  1  6  0  0  0
 27 28  1  0  0  0  0
 27 29  1  1  0  0  0
 29 30  1  0  0  0  0
 31 32  1  6  0  0  0
 31 33  1  0  0  0  0
 31 39  1  0  0  0  0
 33 36  1  0  0  0  0
 33 41  1  1  0  0  0
 34 40  1  0  0  0  0
 35 48  1  0  0  0  0
 36 37  1  0  0  0  0
 36 45  1  1  0  0  0
 37 38  1  0  0  0  0
 37 44  1  6  0  0  0
 38 39  1  0  0  0  0
 38 40  1  1  0  0  0
 43 47  1  0  0  0  0
 46 48  1  0  0  0  0
 48 43  1  6  0  0  0
M  END
>  <CHROM.1>
-175.68084297,32.29753124,67.82978526,-60.40536669,59.52709309,145.91987642
96.65329357,-179.45610876,-166.48062212,-72.66568700,-55.64698418,-75.77203264
-6.18407830,30.82748390,9.43356408,4.25833401,0.57194335,-0.77758370,-1.94868286

>  <Name>
ligand

>  <RI>
0

>  <Rbt.Current_Directory>
/home/itssahil/PROJECTS/Mol_Feturizer/New_Systems/rnas/4PDQ

>  <Rbt.Executable>
rbdock ($Id: //depot/dev/client3/rdock/2013.1/src/exe/rbdock.cxx#4 $)

>  <Rbt.Library>
libRbt.so (2013.1, Build901 2013/11/27)

>  <Rbt.Parameter_File>
/export/apps/rDock/src/rDock_2013.1_src/data/scripts/dock_solv.prm

>  <Rbt.Receptor>
prm/pocket_docking_6.prm

>  <SCORE>
-5.75072

>  <SCORE.INTER>
-0.210076

>  <SCORE.INTER.CONST>
1

>  <SCORE.INTER.POLAR>
0

>  <SCORE.INTER.ROT>
13

>  <SCORE.INTER.SOLV>
13.8877

>  <SCORE.INTER.VDW>
-17.036

>  <SCORE.INTER.norm>
-0.00428727

>  <SCORE.INTRA>
-5.54064

>  <SCORE.INTRA.DIHEDRAL>
-18.6128

>  <SCORE.INTRA.DIHEDRAL.0>
34.5115

>  <SCORE.INTRA.POLAR>
0

>  <SCORE.INTRA.POLAR.0>
0

>  <SCORE.INTRA.REPUL>
0.299723

>  <SCORE.INTRA.REPUL.0>
0

>  <SCORE.INTRA.SOLV>
4.19203

>  <SCORE.INTRA.SOLV.lig_0>
-122.812

>  <SCORE.INTRA.VDW>
0.171141

>  <SCORE.INTRA.VDW.0>
-7.46208

>  <SCORE.INTRA.norm>
-0.113074

>  <SCORE.RESTR>
0

>  <SCORE.RESTR.CAVITY>
0

>  <SCORE.RESTR.norm>
0

>  <SCORE.SYSTEM>
0

>  <SCORE.SYSTEM.CONST>
0

>  <SCORE.SYSTEM.DIHEDRAL>
0

>  <SCORE.SYSTEM.SOLV>
0

>  <SCORE.SYSTEM.norm>
0

>  <SCORE.heavy>
49

>  <SCORE.norm>
-0.117362

>  <RMSD>
4.753

$$$$
ligand
 OpenBabel11021811513D
libRbt.so/2013.1/901 2013/11/27
 49 52  0  0  0  0  0  0  0  0999 V2000
   26.8068    8.3464   -0.0591 C   0  0  2  0  0  0  0  0  0  0  0  0
   27.3506    9.4186    0.6526 O   0  0  0  0  0  0  0  0  0  0  0  0
   25.2647    8.2401    0.2373 C   0  0  2  0  0  0  0  0  0  0  0  0
   24.5888    9.5412   -0.1661 N   0  0  0  0  0  0  0  0  0  0  0  0
   33.5706    9.0653   -2.2986 O   0  0  0  0  0  0  0  0  0  0  0  0
   25.0241    7.9186    1.7308 C   0  0  2  0  0  0  0  0  0  0  0  0
   36.8446   10.4377   -4.4084 N   0  0  0  0  0  0  0  0  0  0  0  0
   25.7325    6.6113    2.1190 C   0  0  2  0  0  0  0  0  0  0  0  0
   27.2922    6.6800    1.8322 C   0  0  2  0  0  0  0  0  0  0  0  0
   27.4805    7.0522    0.3604 O   0  0  0  0  0  0  0  0  0  0  0  0
   27.9938    5.3340    2.1756 C   0  0  0  0  0  0  0  0  0  0  0  0
   27.8145    4.9210    3.5214 N   0  0  0  0  0  0  0  0  0  0  0  0
   31.2726   10.2775   -0.9855 C   0  0  2  0  0  0  0  0  0  0  0  0
   32.5370   11.0175   -1.2697 N   0  0  0  0  0  0  0  0  0  0  0  0
   30.0666   11.3207   -1.1696 C   0  0  0  0  0  0  0  0  0  0  0  0
   28.6845   10.6129   -0.9109 C   0  0  2  0  0  0  0  0  0  0  0  0
   27.5724   11.5636   -1.0568 N   0  0  0  0  0  0  0  0  0  0  0  0
   28.6403   10.0336    0.5172 C   0  0  2  0  0  0  0  0  0  0  0  0
   29.8207    9.0027    0.7336 C   0  0  2  0  0  0  0  0  0  0  0  0
   29.6864    8.5040    2.1166 O   0  0  0  0  0  0  0  0  0  0  0  0
   31.2254    9.7678    0.5273 C   0  0  1  0  0  0  0  0  0  0  0  0
   32.2503    8.8467    0.7295 O   0  0  0  0  0  0  0  0  0  0  0  0
   29.7176    9.2025    3.2001 C   0  0  1  0  0  0  0  0  0  0  0  0
   29.4940    8.4096    4.5214 C   0  0  2  0  0  0  0  0  0  0  0  0
   28.1305    8.4175    4.8056 O   0  0  0  0  0  0  0  0  0  0  0  0
   30.2444    9.2884    5.4340 C   0  0  1  0  0  0  0  0  0  0  0  0
   31.5219    9.7851    4.6893 C   0  0  2  0  0  0  0  0  0  0  0  0
   30.9564    9.9548    3.4126 O   0  0  0  0  0  0  0  0  0  0  0  0
   32.7946    8.9439    4.7970 C   0  0  0  0  0  0  0  0  0  0  0  0
   33.7889    9.6339    4.0636 O   0  0  0  0  0  0  0  0  0  0  0  0
   29.8529   11.5064    6.4088 C   0  0  2  0  0  0  0  0  0  0  0  0
   29.3171   10.4062    5.8038 O   0  0  0  0  0  0  0  0  0  0  0  0
   30.3787   11.1967    7.7795 C   0  0  1  0  0  0  0  0  0  0  0  0
   27.0492   14.7277    8.0656 N   0  0  0  0  0  0  0  0  0  0  0  0
   34.9170   12.2829   -1.2836 O   0  0  0  0  0  0  0  0  0  0  0  0
   30.9344   12.5188    8.4377 C   0  0  2  0  0  0  0  0  0  0  0  0
   29.8761   13.6729    8.5221 C   0  0  1  0  0  0  0  0  0  0  0  0
   29.3926   13.9592    7.1917 C   0  0  1  0  0  0  0  0  0  0  0  0
   28.8526   12.7025    6.5359 O   0  0  0  0  0  0  0  0  0  0  0  0
   28.2812   15.0976    7.2346 C   0  0  0  0  0  0  0  0  0  0  0  0
   29.3399   10.7054    8.5954 N   0  0  0  0  0  0  0  0  0  0  0  0
   23.9011    7.8063    1.9118 O   0  0  0  0  0  0  0  0  0  0  0  0
   35.9935   10.4167   -2.0035 C   0  0  0  0  0  0  0  0  0  0  0  0
   28.9979   13.3115    9.1669 O   0  0  0  0  0  0  0  0  0  0  0  0
   31.7977   12.9085    7.7850 O   0  0  0  0  0  0  0  0  0  0  0  0
   33.6333   10.2527   -1.9495 C   0  0  0  0  0  0  0  0  0  0  0  0
   36.3446    9.8600   -3.2130 C   0  0  0  0  0  0  0  0  0  0  0  0
   34.9260   11.1897   -2.1991 C   0  0  1  0  0  0  0  0  0  0  0  0
   25.1983    5.5398    1.3816 F   0  0  0  0  0  0  0  0  0  0  0  0
  1  2  1  1  0  0  0
  1 10  1  0  0  0  0
  1  3  1  0  0  0  0
  3  4  1  1  0  0  0
  3  6  1  0  0  0  0
  5 46  2  0  0  0  0
  6 42  1  6  0  0  0
  6  8  1  0  0  0  0
  7 47  1  0  0  0  0
  8  9  1  0  0  0  0
  8 49  1  6  0  0  0
  9 10  1  0  0  0  0
  9 11  1  6  0  0  0
 11 12  1  0  0  0  0
 13 14  1  1  0  0  0
 13 15  1  0  0  0  0
 13 21  1  0  0  0  0
 14 46  1  0  0  0  0
 15 16  1  0  0  0  0
 16 17  1  1  0  0  0
 16 18  1  0  0  0  0
 18  2  1  6  0  0  0
 18 19  1  0  0  0  0
 19 20  1  1  0  0  0
 19 21  1  0  0  0  0
 21 22  1  6  0  0  0
 23 20  1  6  0  0  0
 23 24  1  0  0  0  0
 23 28  1  0  0  0  0
 24 25  1  1  0  0  0
 24 26  1  0  0  0  0
 26 27  1  0  0  0  0
 26 32  1  6  0  0  0
 27 28  1  0  0  0  0
 27 29  1  6  0  0  0
 29 30  1  0  0  0  0
 31 32  1  1  0  0  0
 31 33  1  0  0  0  0
 31 39  1  0  0  0  0
 33 36  1  0  0  0  0
 33 41  1  1  0  0  0
 34 40  1  0  0  0  0
 35 48  1  0  0  0  0
 36 37  1  0  0  0  0
 36 45  1  6  0  0  0
 37 38  1  0  0  0  0
 37 44  1  1  0  0  0
 38 39  1  0  0  0  0
 38 40  1  1  0  0  0
 43 47  1  0  0  0  0
 46 48  1  0  0  0  0
 48 43  1  1  0  0  0
M  END
>  <CHROM.1>
-167.91177206,62.44689861,-57.62996802,-144.75080740,-59.52031015,177.74716871
-166.22213741,-178.66220942,-66.90869880,-60.63807275,66.43334705,-149.45633989
-158.08274218,29.84061250,9.93487549,2.54638263,1.11123050,-0.44026368,-2.00123653

>  <Name>
ligand

>  <RI>
0

>  <Rbt.Current_Directory>
/home/itssahil/PROJECTS/Mol_Feturizer/New_Systems/rnas/4PDQ

>  <Rbt.Executable>
rbdock ($Id: //depot/dev/client3/rdock/2013.1/src/exe/rbdock.cxx#4 $)

>  <Rbt.Library>
libRbt.so (2013.1, Build901 2013/11/27)

>  <Rbt.Parameter_File>
/export/apps/rDock/src/rDock_2013.1_src/data/scripts/dock_solv.prm

>  <Rbt.Receptor>
prm/pocket_docking_6.prm

>  <SCORE>
-15.8712

>  <SCORE.INTER>
-5.03339

>  <SCORE.INTER.CONST>
1

>  <SCORE.INTER.POLAR>
0

>  <SCORE.INTER.ROT>
13

>  <SCORE.INTER.SOLV>
17.673

>  <SCORE.INTER.VDW>
-21.5133

>  <SCORE.INTER.norm>
-0.102722

>  <SCORE.INTRA>
-10.8378

>  <SCORE.INTRA.DIHEDRAL>
-27.0086

>  <SCORE.INTRA.DIHEDRAL.0>
34.5115

>  <SCORE.INTRA.POLAR>
0

>  <SCORE.INTRA.POLAR.0>
0

>  <SCORE.INTRA.REPUL>
0

>  <SCORE.INTRA.REPUL.0>
0

>  <SCORE.INTRA.SOLV>
1.33763

>  <SCORE.INTRA.SOLV.lig_0>
-122.812

>  <SCORE.INTRA.VDW>
1.99764

>  <SCORE.INTRA.VDW.0>
-7.46208

>  <SCORE.INTRA.norm>
-0.22118

>  <SCORE.RESTR>
0

>  <SCORE.RESTR.CAVITY>
0

>  <SCORE.RESTR.norm>
0

>  <SCORE.SYSTEM>
0

>  <SCORE.SYSTEM.CONST>
0

>  <SCORE.SYSTEM.DIHEDRAL>
0

>  <SCORE.SYSTEM.SOLV>
0

>  <SCORE.SYSTEM.norm>
0

>  <SCORE.heavy>
49

>  <SCORE.norm>
-0.323902

>  <RMSD>
4.776

$$$$
ligand
 OpenBabel11021811513D
libRbt.so/2013.1/901 2013/11/27
 49 52  0  0  0  0  0  0  0  0999 V2000
   25.4009    9.9647    3.7787 C   0  0  2  0  0  0  0  0  0  0  0  0
   26.6778    9.4143    3.6427 O   0  0  0  0  0  0  0  0  0  0  0  0
   25.5015   11.3748    4.4706 C   0  0  2  0  0  0  0  0  0  0  0  0
   26.3827   12.2824    3.6267 N   0  0  0  0  0  0  0  0  0  0  0  0
   32.9549    8.1288    1.1916 O   0  0  0  0  0  0  0  0  0  0  0  0
   26.0526   11.2312    5.9085 C   0  0  2  0  0  0  0  0  0  0  0  0
   35.4134    9.9451    1.5288 N   0  0  0  0  0  0  0  0  0  0  0  0
   25.1573   10.2948    6.7351 C   0  0  2  0  0  0  0  0  0  0  0  0
   25.0301    8.8608    6.0663 C   0  0  2  0  0  0  0  0  0  0  0  0
   24.5343    9.0565    4.6324 O   0  0  0  0  0  0  0  0  0  0  0  0
   24.0781    7.9362    6.8791 C   0  0  0  0  0  0  0  0  0  0  0  0
   24.0394    6.5978    6.4090 N   0  0  0  0  0  0  0  0  0  0  0  0
   30.2522    9.2105    1.1963 C   0  0  2  0  0  0  0  0  0  0  0  0
   31.2938    9.6155    0.2074 N   0  0  0  0  0  0  0  0  0  0  0  0
   28.8256    9.5224    0.5299 C   0  0  0  0  0  0  0  0  0  0  0  0
   27.6617    9.0998    1.5019 C   0  0  2  0  0  0  0  0  0  0  0  0
   26.3492    9.3994    0.9107 N   0  0  0  0  0  0  0  0  0  0  0  0
   27.7761    9.8643    2.8359 C   0  0  2  0  0  0  0  0  0  0  0  0
   29.1752    9.5815    3.5182 C   0  0  2  0  0  0  0  0  0  0  0  0
   29.1820   10.3463    4.7809 O   0  0  0  0  0  0  0  0  0  0  0  0
   30.3476   10.0829    2.5306 C   0  0  1  0  0  0  0  0  0  0  0  0
   31.5689    9.8330    3.1516 O   0  0  0  0  0  0  0  0  0  0  0  0
   28.8961    9.9039    5.9580 C   0  0  1  0  0  0  0  0  0  0  0  0
   29.9245    8.9103    6.5741 C   0  0  2  0  0  0  0  0  0  0  0  0
   29.5402    7.6178    6.2252 O   0  0  0  0  0  0  0  0  0  0  0  0
   29.6706    9.1870    7.9978 C   0  0  1  0  0  0  0  0  0  0  0  0
   29.4374   10.7208    8.1608 C   0  0  2  0  0  0  0  0  0  0  0  0
   28.7101   10.9398    6.9769 O   0  0  0  0  0  0  0  0  0  0  0  0
   30.6515   11.6127    8.4245 C   0  0  0  0  0  0  0  0  0  0  0  0
   30.4420   12.7976    7.6796 O   0  0  0  0  0  0  0  0  0  0  0  0
   28.0991    8.3637    9.6937 C   0  0  2  0  0  0  0  0  0  0  0  0
   28.4709    8.3741    8.3802 O   0  0  0  0  0  0  0  0  0  0  0  0
   27.0032    7.3747    9.9620 C   0  0  1  0  0  0  0  0  0  0  0  0
   26.5405   11.4694   13.5929 N   0  0  0  0  0  0  0  0  0  0  0  0
   32.9905    9.5095   -2.0704 O   0  0  0  0  0  0  0  0  0  0  0  0
   26.5893    7.4521   11.4827 C   0  0  2  0  0  0  0  0  0  0  0  0
   26.1388    8.8826   11.9404 C   0  0  1  0  0  0  0  0  0  0  0  0
   27.2120    9.8137   11.6815 C   0  0  1  0  0  0  0  0  0  0  0  0
   27.6293    9.7584   10.2242 O   0  0  0  0  0  0  0  0  0  0  0  0
   26.7814   11.2901   12.0913 C   0  0  0  0  0  0  0  0  0  0  0  0
   25.8701    7.6869    9.1842 N   0  0  0  0  0  0  0  0  0  0  0  0
   26.0776   12.2614    6.4028 O   0  0  0  0  0  0  0  0  0  0  0  0
   34.0102   10.7330   -0.4508 C   0  0  0  0  0  0  0  0  0  0  0  0
   25.2231    9.1890   11.3197 O   0  0  0  0  0  0  0  0  0  0  0  0
   27.5072    7.1750   12.1183 O   0  0  0  0  0  0  0  0  0  0  0  0
   32.6415    8.9710    0.3382 C   0  0  0  0  0  0  0  0  0  0  0  0
   35.1466   10.6406    0.3213 C   0  0  0  0  0  0  0  0  0  0  0  0
   33.6515    9.5002   -0.8069 C   0  0  1  0  0  0  0  0  0  0  0  0
   23.8668   10.8417    6.8474 F   0  0  0  0  0  0  0  0  0  0  0  0
  1  2  1  1  0  0  0
  1 10  1  0  0  0  0
  1  3  1  0  0  0  0
  3  4  1  6  0  0  0
  3  6  1  0  0  0  0
  5 46  2  0  0  0  0
  6 42  1  1  0  0  0
  6  8  1  0  0  0  0
  7 47  1  0  0  0  0
  8  9  1  0  0  0  0
  8 49  1  6  0  0  0
  9 10  1  0  0  0  0
  9 11  1  1  0  0  0
 11 12  1  0  0  0  0
 13 14  1  6  0  0  0
 13 15  1  0  0  0  0
 13 21  1  0  0  0  0
 14 46  1  0  0  0  0
 15 16  1  0  0  0  0
 16 17  1  6  0  0  0
 16 18  1  0  0  0  0
 18  2  1  1  0  0  0
 18 19  1  0  0  0  0
 19 20  1  1  0  0  0
 19 21  1  0  0  0  0
 21 22  1  1  0  0  0
 23 20  1  6  0  0  0
 23 24  1  0  0  0  0
 23 28  1  0  0  0  0
 24 25  1  1  0  0  0
 24 26  1  0  0  0  0
 26 27  1  0  0  0  0
 26 32  1  6  0  0  0
 27 28  1  0  0  0  0
 27 29  1  6  0  0  0
 29 30  1  0  0  0  0
 31 32  1  6  0  0  0
 31 33  1  0  0  0  0
 31 39  1  0  0  0  0
 33 36  1  0  0  0  0
 33 41  1  6  0  0  0
 34 40  1  0  0  0  0
 35 48  1  0  0  0  0
 36 37  1  0  0  0  0
 36 45  1  1  0  0  0
 37 38  1  0  0  0  0
 37 44  1  6  0  0  0
 38 39  1  0  0  0  0
 38 40  1  6  0  0  0
 43 47  1  0  0  0  0
 46 48  1  0  0  0  0
 48 43  1  1  0  0  0
M  END
>  <CHROM.1>
-66.15575128,-92.97839498,-173.55290524,-157.20307264,96.75034498,69.65695078
174.28523485,141.06403392,-172.46269155,65.24259986,-57.47408389,-150.00586462
133.93424715,28.39524511,9.65867351,5.66647336,1.03320243,-0.04985617,-1.55857377

>  <Name>
ligand

>  <RI>
0

>  <Rbt.Current_Directory>
/home/itssahil/PROJECTS/Mol_Feturizer/New_Systems/rnas/4PDQ

>  <Rbt.Executable>
rbdock ($Id: //depot/dev/client3/rdock/2013.1/src/exe/rbdock.cxx#4 $)

>  <Rbt.Library>
libRbt.so (2013.1, Build901 2013/11/27)

>  <Rbt.Parameter_File>
/export/apps/rDock/src/rDock_2013.1_src/data/scripts/dock_solv.prm

>  <Rbt.Receptor>
prm/pocket_docking_3.prm

>  <SCORE>
-2.80468

>  <SCORE.INTER>
2.93358

>  <SCORE.INTER.CONST>
1

>  <SCORE.INTER.POLAR>
0

>  <SCORE.INTER.ROT>
13

>  <SCORE.INTER.SOLV>
11.5644

>  <SCORE.INTER.VDW>
-14.1658

>  <SCORE.INTER.norm>
0.0598689

>  <SCORE.INTRA>
-6.29523

>  <SCORE.INTRA.DIHEDRAL>
-16.3082

>  <SCORE.INTRA.DIHEDRAL.0>
34.5115

>  <SCORE.INTRA.POLAR>
0

>  <SCORE.INTRA.POLAR.0>
0

>  <SCORE.INTRA.REPUL>
0

>  <SCORE.INTRA.REPUL.0>
0

>  <SCORE.INTRA.SOLV>
4.86686

>  <SCORE.INTRA.SOLV.lig_0>
-122.812

>  <SCORE.INTRA.VDW>
-0.574567

>  <SCORE.INTRA.VDW.0>
-7.46208

>  <SCORE.INTRA.norm>
-0.128474

>  <SCORE.RESTR>
0.556973

>  <SCORE.RESTR.CAVITY>
0.556973

>  <SCORE.RESTR.norm>
0.0113668

>  <SCORE.SYSTEM>
0

>  <SCORE.SYSTEM.CONST>
0

>  <SCORE.SYSTEM.DIHEDRAL>
0

>  <SCORE.SYSTEM.SOLV>
0

>  <SCORE.SYSTEM.norm>
0

>  <SCORE.heavy>
49

>  <SCORE.norm>
-0.0572383

>  <RMSD>
4.782

$$$$
ligand
 OpenBabel11021811513D
libRbt.so/2013.1/901 2013/11/27
 49 52  0  0  0  0  0  0  0  0999 V2000
   28.2438    7.6734    4.8497 C   0  0  2  0  0  0  0  0  0  0  0  0
   29.2439    6.9273    4.2210 O   0  0  0  0  0  0  0  0  0  0  0  0
   27.2027    6.7042    5.5234 C   0  0  2  0  0  0  0  0  0  0  0  0
   27.9220    5.8244    6.5339 N   0  0  0  0  0  0  0  0  0  0  0  0
   35.1266    5.2757    1.8902 O   0  0  0  0  0  0  0  0  0  0  0  0
   26.4822    5.8566    4.4490 C   0  0  2  0  0  0  0  0  0  0  0  0
   37.6871    6.5265   -2.6675 N   0  0  0  0  0  0  0  0  0  0  0  0
   25.7802    6.7670    3.4293 C   0  0  2  0  0  0  0  0  0  0  0  0
   26.7999    7.7618    2.7292 C   0  0  2  0  0  0  0  0  0  0  0  0
   27.5251    8.5382    3.8298 O   0  0  0  0  0  0  0  0  0  0  0  0
   26.0735    8.7177    1.7391 C   0  0  0  0  0  0  0  0  0  0  0  0
   25.3855    8.0468    0.6948 N   0  0  0  0  0  0  0  0  0  0  0  0
   33.3865    7.3268    3.0036 C   0  0  2  0  0  0  0  0  0  0  0  0
   34.5671    7.6338    2.1440 N   0  0  0  0  0  0  0  0  0  0  0  0
   32.3467    6.5061    2.0972 C   0  0  0  0  0  0  0  0  0  0  0  0
   31.0736    6.1176    2.9378 C   0  0  2  0  0  0  0  0  0  0  0  0
   30.1039    5.3823    2.1126 N   0  0  0  0  0  0  0  0  0  0  0  0
   30.3836    7.3857    3.4789 C   0  0  2  0  0  0  0  0  0  0  0  0
   31.3845    8.2214    4.3749 C   0  0  2  0  0  0  0  0  0  0  0  0
   30.6319    9.4007    4.8464 O   0  0  0  0  0  0  0  0  0  0  0  0
   32.6473    8.6622    3.4735 C   0  0  1  0  0  0  0  0  0  0  0  0
   33.5113    9.4023    4.2768 O   0  0  0  0  0  0  0  0  0  0  0  0
   30.1413    9.5885    6.0241 C   0  0  1  0  0  0  0  0  0  0  0  0
   31.1532    9.4797    7.2025 C   0  0  2  0  0  0  0  0  0  0  0  0
   31.1607    8.1595    7.6462 O   0  0  0  0  0  0  0  0  0  0  0  0
   30.4735   10.3702    8.1579 C   0  0  1  0  0  0  0  0  0  0  0  0
   29.8845   11.5766    7.3635 C   0  0  2  0  0  0  0  0  0  0  0  0
   29.4726   10.8778    6.2144 O   0  0  0  0  0  0  0  0  0  0  0  0
   30.7646   12.8118    7.1671 C   0  0  0  0  0  0  0  0  0  0  0  0
   31.8659   12.3930    6.3833 O   0  0  0  0  0  0  0  0  0  0  0  0
   28.7230   10.1112    9.8586 C   0  0  2  0  0  0  0  0  0  0  0  0
   29.4166    9.5454    8.8279 O   0  0  0  0  0  0  0  0  0  0  0  0
   27.8641    9.1121   10.5764 C   0  0  1  0  0  0  0  0  0  0  0  0
   26.9832   14.2315    9.1893 N   0  0  0  0  0  0  0  0  0  0  0  0
   37.8379    6.6689    1.3726 O   0  0  0  0  0  0  0  0  0  0  0  0
   27.0553    9.8419   11.7180 C   0  0  2  0  0  0  0  0  0  0  0  0
   26.1716   11.0302   11.2023 C   0  0  1  0  0  0  0  0  0  0  0  0
   27.0205   11.9818   10.5246 C   0  0  1  0  0  0  0  0  0  0  0  0
   27.8105   11.3042    9.4210 O   0  0  0  0  0  0  0  0  0  0  0  0
   26.1572   13.1865    9.9448 C   0  0  0  0  0  0  0  0  0  0  0  0
   26.9377    8.5405    9.6813 N   0  0  0  0  0  0  0  0  0  0  0  0
   25.7043    5.1918    4.9584 O   0  0  0  0  0  0  0  0  0  0  0  0
   36.4983    6.2911   -0.4226 C   0  0  0  0  0  0  0  0  0  0  0  0
   25.4079   10.6140   10.4532 O   0  0  0  0  0  0  0  0  0  0  0  0
   27.8101   10.2893   12.4618 O   0  0  0  0  0  0  0  0  0  0  0  0
   35.3690    6.4670    1.6497 C   0  0  0  0  0  0  0  0  0  0  0  0
   37.3757    6.8535   -1.3225 C   0  0  0  0  0  0  0  0  0  0  0  0
   36.6004    6.9587    0.7260 C   0  0  1  0  0  0  0  0  0  0  0  0
   24.7919    7.5334    4.0720 F   0  0  0  0  0  0  0  0  0  0  0  0
  1  2  1  6  0  0  0
  1 10  1  0  0  0  0
  1  3  1  0  0  0  0
  3  4  1  1  0  0  0
  3  6  1  0  0  0  0
  5 46  2  0  0  0  0
  6 42  1  1  0  0  0
  6  8  1  0  0  0  0
  7 47  1  0  0  0  0
  8  9  1  0  0  0  0
  8 49  1  1  0  0  0
  9 10  1  0  0  0  0
  9 11  1  6  0  0  0
 11 12  1  0  0  0  0
 13 14  1  6  0  0  0
 13 15  1  0  0  0  0
 13 21  1  0  0  0  0
 14 46  1  0  0  0  0
 15 16  1  0  0  0  0
 16 17  1  6  0  0  0
 16 18  1  0  0  0  0
 18  2  1  1  0  0  0
 18 19  1  0  0  0  0
 19 20  1  6  0  0  0
 19 21  1  0  0  0  0
 21 22  1  1  0  0  0
 23 20  1  6  0  0  0
 23 24  1  0  0  0  0
 23 28  1  0  0  0  0
 24 25  1  1  0  0  0
 24 26  1  0  0  0  0
 26 27  1  0  0  0  0
 26 32  1  6  0  0  0
 27 28  1  0  0  0  0
 27 29  1  6  0  0  0
 29 30  1  0  0  0  0
 31 32  1  6  0  0  0
 31 33  1  0  0  0  0
 31 39  1  0  0  0  0
 33 36  1  0  0  0  0
 33 41  1  6  0  0  0
 34 40  1  0  0  0  0
 35 48  1  0  0  0  0
 36 37  1  0  0  0  0
 36 45  1  1  0  0  0
 37 38  1  0  0  0  0
 37 44  1  6  0  0  0
 38 39  1  0  0  0  0
 38 40  1  6  0  0  0
 43 47  1  0  0  0  0
 46 48  1  0  0  0  0
 48 43  1  6  0  0  0
M  END
>  <CHROM.1>
179.51440325,-176.03167124,-59.59227089,-64.27822246,103.93655326,55.60393736
173.84333921,63.83652555,-170.65347522,-179.06506496,178.84673150,-71.37316256
-67.36981250,29.97038379,8.61515815,5.34169910,2.28633847,0.18795378,0.99268876

>  <Name>
ligand

>  <RI>
0

>  <Rbt.Current_Directory>
/home/itssahil/PROJECTS/Mol_Feturizer/New_Systems/rnas/4PDQ

>  <Rbt.Executable>
rbdock ($Id: //depot/dev/client3/rdock/2013.1/src/exe/rbdock.cxx#4 $)

>  <Rbt.Library>
libRbt.so (2013.1, Build901 2013/11/27)

>  <Rbt.Parameter_File>
/export/apps/rDock/src/rDock_2013.1_src/data/scripts/dock_solv.prm

>  <Rbt.Receptor>
prm/pocket_docking_8.prm

>  <SCORE>
-16.5513

>  <SCORE.INTER>
-4.95844

>  <SCORE.INTER.CONST>
1

>  <SCORE.INTER.POLAR>
0

>  <SCORE.INTER.ROT>
13

>  <SCORE.INTER.SOLV>
12.2634

>  <SCORE.INTER.VDW>
-19.6601

>  <SCORE.INTER.norm>
-0.101193

>  <SCORE.INTRA>
-11.5928

>  <SCORE.INTRA.DIHEDRAL>
-24.7357

>  <SCORE.INTRA.DIHEDRAL.0>
34.5115

>  <SCORE.INTRA.POLAR>
0

>  <SCORE.INTRA.POLAR.0>
0

>  <SCORE.INTRA.REPUL>
0

>  <SCORE.INTRA.REPUL.0>
0

>  <SCORE.INTRA.SOLV>
-3.53205

>  <SCORE.INTRA.SOLV.lig_0>
-122.812

>  <SCORE.INTRA.VDW>
2.54104

>  <SCORE.INTRA.VDW.0>
-7.46208

>  <SCORE.INTRA.norm>
-0.236588

>  <SCORE.RESTR>
0

>  <SCORE.RESTR.CAVITY>
0

>  <SCORE.RESTR.norm>
0

>  <SCORE.SYSTEM>
0

>  <SCORE.SYSTEM.CONST>
0

>  <SCORE.SYSTEM.DIHEDRAL>
0

>  <SCORE.SYSTEM.SOLV>
0

>  <SCORE.SYSTEM.norm>
0

>  <SCORE.heavy>
49

>  <SCORE.norm>
-0.337781

>  <RMSD>
4.895

$$$$
ligand
 OpenBabel11021811513D
libRbt.so/2013.1/901 2013/11/27
 49 52  0  0  0  0  0  0  0  0999 V2000
   26.2855    8.7879    1.0761 C   0  0  2  0  0  0  0  0  0  0  0  0
   27.5213    8.9091    1.7164 O   0  0  0  0  0  0  0  0  0  0  0  0
   25.1252    9.0319    2.1112 C   0  0  2  0  0  0  0  0  0  0  0  0
   25.2769   10.4207    2.7118 N   0  0  0  0  0  0  0  0  0  0  0  0
   31.7083    6.4060   -3.1090 O   0  0  0  0  0  0  0  0  0  0  0  0
   25.1407    7.9391    3.2054 C   0  0  2  0  0  0  0  0  0  0  0  0
   35.5980   10.1215   -3.7703 N   0  0  0  0  0  0  0  0  0  0  0  0
   25.0061    6.5449    2.5733 C   0  0  2  0  0  0  0  0  0  0  0  0
   26.1600    6.2627    1.5204 C   0  0  2  0  0  0  0  0  0  0  0  0
   26.1404    7.3944    0.4913 O   0  0  0  0  0  0  0  0  0  0  0  0
   25.9856    4.8721    0.8440 C   0  0  0  0  0  0  0  0  0  0  0  0
   26.9999    4.5619   -0.0989 N   0  0  0  0  0  0  0  0  0  0  0  0
   30.6515    8.3673   -1.2351 C   0  0  2  0  0  0  0  0  0  0  0  0
   31.9720    8.5137   -1.9148 N   0  0  0  0  0  0  0  0  0  0  0  0
   30.1731    9.8411   -0.8163 C   0  0  0  0  0  0  0  0  0  0  0  0
   28.7674    9.7817   -0.1100 C   0  0  2  0  0  0  0  0  0  0  0  0
   28.3271   11.1243    0.2967 N   0  0  0  0  0  0  0  0  0  0  0  0
   28.8396    8.8952    1.1492 C   0  0  2  0  0  0  0  0  0  0  0  0
   29.3132    7.4337    0.7715 C   0  0  2  0  0  0  0  0  0  0  0  0
   29.3421    6.6687    2.0337 O   0  0  0  0  0  0  0  0  0  0  0  0
   30.7820    7.5163    0.1101 C   0  0  1  0  0  0  0  0  0  0  0  0
   31.1837    6.2212   -0.2076 O   0  0  0  0  0  0  0  0  0  0  0  0
   28.6625    6.9091    3.1029 C   0  0  1  0  0  0  0  0  0  0  0  0
   28.6186    5.7563    4.1487 C   0  0  2  0  0  0  0  0  0  0  0  0
   27.5066    4.9641    3.8733 O   0  0  0  0  0  0  0  0  0  0  0  0
   28.4208    6.5678    5.3612 C   0  0  1  0  0  0  0  0  0  0  0  0
   29.2876    7.8581    5.2292 C   0  0  2  0  0  0  0  0  0  0  0  0
   29.0948    8.0893    3.8552 O   0  0  0  0  0  0  0  0  0  0  0  0
   30.7255    7.8194    5.7486 C   0  0  0  0  0  0  0  0  0  0  0  0
   30.6372    7.5949    7.1431 O   0  0  0  0  0  0  0  0  0  0  0  0
   26.4664    7.3727    6.6085 C   0  0  2  0  0  0  0  0  0  0  0  0
   26.9531    6.8607    5.4405 O   0  0  0  0  0  0  0  0  0  0  0  0
   25.5289    6.4227    7.2938 C   0  0  1  0  0  0  0  0  0  0  0  0
   25.4251   11.8340    6.8732 N   0  0  0  0  0  0  0  0  0  0  0  0
   34.3452    6.5372   -4.1069 O   0  0  0  0  0  0  0  0  0  0  0  0
   24.9669    7.0969    8.6052 C   0  0  2  0  0  0  0  0  0  0  0  0
   24.2451    8.4653    8.3498 C   0  0  1  0  0  0  0  0  0  0  0  0
   25.1691    9.3647    7.6994 C   0  0  1  0  0  0  0  0  0  0  0  0
   25.7248    8.7391    6.4342 O   0  0  0  0  0  0  0  0  0  0  0  0
   24.4638   10.7553    7.3805 C   0  0  0  0  0  0  0  0  0  0  0  0
   24.4379    6.1293    6.4512 N   0  0  0  0  0  0  0  0  0  0  0  0
   24.2660    8.1145    3.9200 O   0  0  0  0  0  0  0  0  0  0  0  0
   33.6147    8.6624   -4.4381 C   0  0  0  0  0  0  0  0  0  0  0  0
   23.3538    8.2789    7.6510 O   0  0  0  0  0  0  0  0  0  0  0  0
   25.8542    7.3160    9.3037 O   0  0  0  0  0  0  0  0  0  0  0  0
   32.3795    7.4153   -2.8508 C   0  0  0  0  0  0  0  0  0  0  0  0
   34.8019    9.3306   -4.6383 C   0  0  0  0  0  0  0  0  0  0  0  0
   33.8200    7.7235   -3.5152 C   0  0  1  0  0  0  0  0  0  0  0  0
   23.7713    6.4373    1.9092 F   0  0  0  0  0  0  0  0  0  0  0  0
  1  2  1  1  0  0  0
  1 10  1  0  0  0  0
  1  3  1  0  0  0  0
  3  4  1  1  0  0  0
  3  6  1  0  0  0  0
  5 46  2  0  0  0  0
  6 42  1  1  0  0  0
  6  8  1  0  0  0  0
  7 47  1  0  0  0  0
  8  9  1  0  0  0  0
  8 49  1  6  0  0  0
  9 10  1  0  0  0  0
  9 11  1  6  0  0  0
 11 12  1  0  0  0  0
 13 14  1  1  0  0  0
 13 15  1  0  0  0  0
 13 21  1  0  0  0  0
 14 46  1  0  0  0  0
 15 16  1  0  0  0  0
 16 17  1  1  0  0  0
 16 18  1  0  0  0  0
 18  2  1  6  0  0  0
 18 19  1  0  0  0  0
 19 20  1  1  0  0  0
 19 21  1  0  0  0  0
 21 22  1  6  0  0  0
 23 20  1  6  0  0  0
 23 24  1  0  0  0  0
 23 28  1  0  0  0  0
 24 25  1  6  0  0  0
 24 26  1  0  0  0  0
 26 27  1  0  0  0  0
 26 32  1  6  0  0  0
 27 28  1  0  0  0  0
 27 29  1  6  0  0  0
 29 30  1  0  0  0  0
 31 32  1  6  0  0  0
 31 33  1  0  0  0  0
 31 39  1  0  0  0  0
 33 36  1  0  0  0  0
 33 41  1  6  0  0  0
 34 40  1  0  0  0  0
 35 48  1  0  0  0  0
 36 37  1  0  0  0  0
 36 45  1  1  0  0  0
 37 38  1  0  0  0  0
 37 44  1  6  0  0  0
 38 39  1  0  0  0  0
 38 40  1  6  0  0  0
 43 47  1  0  0  0  0
 46 48  1  0  0  0  0
 48 43  1  6  0  0  0
M  END
>  <CHROM.1>
-173.44278404,43.79547439,-179.40304888,-156.85609840,24.62021839,165.40827585
167.28996493,-63.18636794,-114.26060735,171.75179482,-62.87486330,-84.55223190
-16.25571574,28.11195592,7.81063656,2.51144723,0.89961158,-0.15263302,-1.68149273

>  <Name>
ligand

>  <RI>
0

>  <Rbt.Current_Directory>
/home/itssahil/PROJECTS/Mol_Feturizer/New_Systems/rnas/4PDQ

>  <Rbt.Executable>
rbdock ($Id: //depot/dev/client3/rdock/2013.1/src/exe/rbdock.cxx#4 $)

>  <Rbt.Library>
libRbt.so (2013.1, Build901 2013/11/27)

>  <Rbt.Parameter_File>
/export/apps/rDock/src/rDock_2013.1_src/data/scripts/dock_solv.prm

>  <Rbt.Receptor>
prm/pocket_docking_6.prm

>  <SCORE>
-7.80192

>  <SCORE.INTER>
-0.39718

>  <SCORE.INTER.CONST>
1

>  <SCORE.INTER.POLAR>
0

>  <SCORE.INTER.ROT>
13

>  <SCORE.INTER.SOLV>
13.9628

>  <SCORE.INTER.VDW>
-17.1857

>  <SCORE.INTER.norm>
-0.00810572

>  <SCORE.INTRA>
-7.40474

>  <SCORE.INTRA.DIHEDRAL>
-16.0162

>  <SCORE.INTRA.DIHEDRAL.0>
34.5115

>  <SCORE.INTRA.POLAR>
0

>  <SCORE.INTRA.POLAR.0>
0

>  <SCORE.INTRA.REPUL>
0

>  <SCORE.INTRA.REPUL.0>
0

>  <SCORE.INTRA.SOLV>
1.36175

>  <SCORE.INTRA.SOLV.lig_0>
-122.812

>  <SCORE.INTRA.VDW>
-0.0775158

>  <SCORE.INTRA.VDW.0>
-7.46208

>  <SCORE.INTRA.norm>
-0.151117

>  <SCORE.RESTR>
0

>  <SCORE.RESTR.CAVITY>
0

>  <SCORE.RESTR.norm>
0

>  <SCORE.SYSTEM>
0

>  <SCORE.SYSTEM.CONST>
0

>  <SCORE.SYSTEM.DIHEDRAL>
0

>  <SCORE.SYSTEM.SOLV>
0

>  <SCORE.SYSTEM.norm>
0

>  <SCORE.heavy>
49

>  <SCORE.norm>
-0.159223

>  <RMSD>
5.038

$$$$
ligand
 OpenBabel11021811513D
libRbt.so/2013.1/901 2013/11/27
 49 52  0  0  0  0  0  0  0  0999 V2000
   28.0116    6.6161    3.3150 C   0  0  2  0  0  0  0  0  0  0  0  0
   28.9859    6.3219    2.3579 O   0  0  0  0  0  0  0  0  0  0  0  0
   26.9022    5.4997    3.3039 C   0  0  2  0  0  0  0  0  0  0  0  0
   27.5461    4.1542    3.5996 N   0  0  0  0  0  0  0  0  0  0  0  0
   35.1974    5.0166   -0.1361 O   0  0  0  0  0  0  0  0  0  0  0  0
   26.1653    5.4861    1.9443 C   0  0  2  0  0  0  0  0  0  0  0  0
   38.3667    8.7401   -1.7936 N   0  0  0  0  0  0  0  0  0  0  0  0
   25.5405    6.8608    1.6588 C   0  0  2  0  0  0  0  0  0  0  0  0
   26.6305    8.0146    1.6638 C   0  0  2  0  0  0  0  0  0  0  0  0
   27.3677    7.9551    3.0029 O   0  0  0  0  0  0  0  0  0  0  0  0
   25.9831    9.4102    1.4294 C   0  0  0  0  0  0  0  0  0  0  0  0
   26.9197   10.4344    1.1334 N   0  0  0  0  0  0  0  0  0  0  0  0
   33.2292    6.4356    1.4723 C   0  0  2  0  0  0  0  0  0  0  0  0
   34.5741    6.9935    1.1450 N   0  0  0  0  0  0  0  0  0  0  0  0
   32.1741    7.1515    0.4972 C   0  0  0  0  0  0  0  0  0  0  0  0
   30.7230    6.6003    0.7594 C   0  0  2  0  0  0  0  0  0  0  0  0
   29.7437    7.2633   -0.1142 N   0  0  0  0  0  0  0  0  0  0  0  0
   30.3124    6.8530    2.2239 C   0  0  2  0  0  0  0  0  0  0  0  0
   31.3361    6.1630    3.2132 C   0  0  2  0  0  0  0  0  0  0  0  0
   30.8541    6.4550    4.5777 O   0  0  0  0  0  0  0  0  0  0  0  0
   32.8013    6.7916    2.9692 C   0  0  1  0  0  0  0  0  0  0  0  0
   33.6850    6.1779    3.8535 O   0  0  0  0  0  0  0  0  0  0  0  0
   30.9120    7.5851    5.1961 C   0  0  1  0  0  0  0  0  0  0  0  0
   32.3002    7.9564    5.7958 C   0  0  2  0  0  0  0  0  0  0  0  0
   32.3489    7.4782    7.1030 O   0  0  0  0  0  0  0  0  0  0  0  0
   32.1701    9.4226    5.7580 C   0  0  1  0  0  0  0  0  0  0  0  0
   31.4387    9.8117    4.4362 C   0  0  2  0  0  0  0  0  0  0  0  0
   30.5207    8.7468    4.3943 O   0  0  0  0  0  0  0  0  0  0  0  0
   32.2865   10.0689    3.1896 C   0  0  0  0  0  0  0  0  0  0  0  0
   31.3923   10.5148    2.1874 O   0  0  0  0  0  0  0  0  0  0  0  0
   30.9846   11.1074    7.0919 C   0  0  2  0  0  0  0  0  0  0  0  0
   31.3996    9.8114    6.9833 O   0  0  0  0  0  0  0  0  0  0  0  0
   30.6468   11.4749    8.5068 C   0  0  1  0  0  0  0  0  0  0  0  0
   28.1850   12.4568    3.9116 N   0  0  0  0  0  0  0  0  0  0  0  0
   37.8480    6.4802    1.0033 O   0  0  0  0  0  0  0  0  0  0  0  0
   30.1278   12.9645    8.5508 C   0  0  2  0  0  0  0  0  0  0  0  0
   28.8915   13.2279    7.6229 C   0  0  1  0  0  0  0  0  0  0  0  0
   29.2436   12.8765    6.2672 C   0  0  1  0  0  0  0  0  0  0  0  0
   29.7468   11.4471    6.1977 O   0  0  0  0  0  0  0  0  0  0  0  0
   28.0012   13.0870    5.2951 C   0  0  0  0  0  0  0  0  0  0  0  0
   29.6197   10.6398    8.9904 N   0  0  0  0  0  0  0  0  0  0  0  0
   25.3395    4.6965    1.9757 O   0  0  0  0  0  0  0  0  0  0  0  0
   37.2685    6.5171   -1.1928 C   0  0  0  0  0  0  0  0  0  0  0  0
   28.0294   12.5540    7.9696 O   0  0  0  0  0  0  0  0  0  0  0  0
   30.9734   13.6495    8.1779 O   0  0  0  0  0  0  0  0  0  0  0  0
   35.4786    6.1387    0.3085 C   0  0  0  0  0  0  0  0  0  0  0  0
   38.3034    7.3390   -1.5795 C   0  0  0  0  0  0  0  0  0  0  0  0
   36.8862    6.8822    0.0303 C   0  0  1  0  0  0  0  0  0  0  0  0
   24.5787    7.1627    2.6392 F   0  0  0  0  0  0  0  0  0  0  0  0
  1  2  1  6  0  0  0
  1 10  1  0  0  0  0
  1  3  1  0  0  0  0
  3  4  1  6  0  0  0
  3  6  1  0  0  0  0
  5 46  2  0  0  0  0
  6 42  1  1  0  0  0
  6  8  1  0  0  0  0
  7 47  1  0  0  0  0
  8  9  1  0  0  0  0
  8 49  1  1  0  0  0
  9 10  1  0  0  0  0
  9 11  1  1  0  0  0
 11 12  1  0  0  0  0
 13 14  1  6  0  0  0
 13 15  1  0  0  0  0
 13 21  1  0  0  0  0
 14 46  1  0  0  0  0
 15 16  1  0  0  0  0
 16 17  1  6  0  0  0
 16 18  1  0  0  0  0
 18  2  1  6  0  0  0
 18 19  1  0  0  0  0
 19 20  1  1  0  0  0
 19 21  1  0  0  0  0
 21 22  1  1  0  0  0
 23 20  1  6  0  0  0
 23 24  1  0  0  0  0
 23 28  1  0  0  0  0
 24 25  1  1  0  0  0
 24 26  1  0  0  0  0
 26 27  1  0  0  0  0
 26 32  1  1  0  0  0
 27 28  1  0  0  0  0
 27 29  1  6  0  0  0
 29 30  1  0  0  0  0
 31 32  1  1  0  0  0
 31 33  1  0  0  0  0
 31 39  1  0  0  0  0
 33 36  1  0  0  0  0
 33 41  1  6  0  0  0
 34 40  1  0  0  0  0
 35 48  1  0  0  0  0
 36 37  1  0  0  0  0
 36 45  1  6  0  0  0
 37 38  1  0  0  0  0
 37 44  1  1  0  0  0
 38 39  1  0  0  0  0
 38 40  1  6  0  0  0
 43 47  1  0  0  0  0
 46 48  1  0  0  0  0
 48 43  1  6  0  0  0
M  END
>  <CHROM.1>
-163.52547932,-159.26830473,-166.97433784,-102.14918579,-73.15628090,-78.04645759
-171.21306797,-174.83287406,-161.00299935,-167.34554179,-62.71106632,-73.17520086
-86.67994526,30.74002659,8.43396909,3.46385306,2.38034556,0.11985478,0.82799936

>  <Name>
ligand

>  <RI>
0

>  <Rbt.Current_Directory>
/home/itssahil/PROJECTS/Mol_Feturizer/New_Systems/rnas/4PDQ

>  <Rbt.Executable>
rbdock ($Id: //depot/dev/client3/rdock/2013.1/src/exe/rbdock.cxx#4 $)

>  <Rbt.Library>
libRbt.so (2013.1, Build901 2013/11/27)

>  <Rbt.Parameter_File>
/export/apps/rDock/src/rDock_2013.1_src/data/scripts/dock_solv.prm

>  <Rbt.Receptor>
prm/pocket_docking_6.prm

>  <SCORE>
-15.8077

>  <SCORE.INTER>
-5.28714

>  <SCORE.INTER.CONST>
1

>  <SCORE.INTER.POLAR>
0

>  <SCORE.INTER.ROT>
13

>  <SCORE.INTER.SOLV>
12.2462

>  <SCORE.INTER.VDW>
-19.8735

>  <SCORE.INTER.norm>
-0.107901

>  <SCORE.INTRA>
-10.5206

>  <SCORE.INTRA.DIHEDRAL>
-22.3573

>  <SCORE.INTRA.DIHEDRAL.0>
34.5115

>  <SCORE.INTRA.POLAR>
0

>  <SCORE.INTRA.POLAR.0>
0

>  <SCORE.INTRA.REPUL>
0

>  <SCORE.INTRA.REPUL.0>
0

>  <SCORE.INTRA.SOLV>
-0.970455

>  <SCORE.INTRA.SOLV.lig_0>
-122.812

>  <SCORE.INTRA.VDW>
1.14333

>  <SCORE.INTRA.VDW.0>
-7.46208

>  <SCORE.INTRA.norm>
-0.214705

>  <SCORE.RESTR>
0

>  <SCORE.RESTR.CAVITY>
0

>  <SCORE.RESTR.norm>
0

>  <SCORE.SYSTEM>
0

>  <SCORE.SYSTEM.CONST>
0

>  <SCORE.SYSTEM.DIHEDRAL>
0

>  <SCORE.SYSTEM.SOLV>
0

>  <SCORE.SYSTEM.norm>
0

>  <SCORE.heavy>
49

>  <SCORE.norm>
-0.322606

>  <RMSD>
5.138

$$$$
ligand
 OpenBabel11021811513D
libRbt.so/2013.1/901 2013/11/27
 49 52  0  0  0  0  0  0  0  0999 V2000
   28.6678    7.2327    1.1045 C   0  0  2  0  0  0  0  0  0  0  0  0
   29.8963    7.1814    1.7680 O   0  0  0  0  0  0  0  0  0  0  0  0
   28.0974    8.6986    1.1560 C   0  0  2  0  0  0  0  0  0  0  0  0
   29.0928    9.6441    0.5021 N   0  0  0  0  0  0  0  0  0  0  0  0
   35.9666    5.3845   -0.5269 O   0  0  0  0  0  0  0  0  0  0  0  0
   27.8034    9.1112    2.6173 C   0  0  2  0  0  0  0  0  0  0  0  0
   36.0193    7.0583   -3.5879 N   0  0  0  0  0  0  0  0  0  0  0  0
   26.8115    8.1306    3.2624 C   0  0  2  0  0  0  0  0  0  0  0  0
   27.3525    6.6387    3.2274 C   0  0  2  0  0  0  0  0  0  0  0  0
   27.6792    6.2944    1.7730 O   0  0  0  0  0  0  0  0  0  0  0  0
   26.3193    5.6444    3.8318 C   0  0  0  0  0  0  0  0  0  0  0  0
   25.1038    5.5671    3.1033 N   0  0  0  0  0  0  0  0  0  0  0  0
   34.1232    7.2048    0.8008 C   0  0  2  0  0  0  0  0  0  0  0  0
   35.4172    7.6441    0.2012 N   0  0  0  0  0  0  0  0  0  0  0  0
   33.0206    7.2680   -0.3641 C   0  0  0  0  0  0  0  0  0  0  0  0
   31.6210    6.7942    0.1788 C   0  0  2  0  0  0  0  0  0  0  0  0
   30.5975    6.8668   -0.8742 N   0  0  0  0  0  0  0  0  0  0  0  0
   31.1721    7.6895    1.3510 C   0  0  2  0  0  0  0  0  0  0  0  0
   32.2409    7.6531    2.5168 C   0  0  2  0  0  0  0  0  0  0  0  0
   31.7185    8.5283    3.5848 O   0  0  0  0  0  0  0  0  0  0  0  0
   33.6474    8.2044    1.9519 C   0  0  1  0  0  0  0  0  0  0  0  0
   34.5714    8.1719    2.9935 O   0  0  0  0  0  0  0  0  0  0  0  0
   30.7945    8.2446    4.4384 C   0  0  1  0  0  0  0  0  0  0  0  0
   30.9573    6.8871    5.1835 C   0  0  2  0  0  0  0  0  0  0  0  0
   30.2884    5.9088    4.4518 O   0  0  0  0  0  0  0  0  0  0  0  0
   30.2358    7.2285    6.4208 C   0  0  1  0  0  0  0  0  0  0  0  0
   30.5849    8.7018    6.7963 C   0  0  2  0  0  0  0  0  0  0  0  0
   30.6072    9.2398    5.4968 O   0  0  0  0  0  0  0  0  0  0  0  0
   31.8005    8.9515    7.6900 C   0  0  0  0  0  0  0  0  0  0  0  0
   32.9187    8.4390    6.9902 O   0  0  0  0  0  0  0  0  0  0  0  0
   27.8836    7.3473    7.1112 C   0  0  2  0  0  0  0  0  0  0  0  0
   28.7786    7.0340    6.1292 O   0  0  0  0  0  0  0  0  0  0  0  0
   28.1016    6.5346    8.3535 C   0  0  1  0  0  0  0  0  0  0  0  0
   23.5482    5.8662    6.7816 N   0  0  0  0  0  0  0  0  0  0  0  0
   38.6327    7.2439   -0.0558 O   0  0  0  0  0  0  0  0  0  0  0  0
   27.0047    6.9105    9.4238 C   0  0  2  0  0  0  0  0  0  0  0  0
   25.5348    6.7179    8.9131 C   0  0  1  0  0  0  0  0  0  0  0  0
   25.3466    7.5162    7.7244 C   0  0  1  0  0  0  0  0  0  0  0  0
   26.3904    7.1737    6.6783 O   0  0  0  0  0  0  0  0  0  0  0  0
   23.8778    7.3169    7.1447 C   0  0  0  0  0  0  0  0  0  0  0  0
   27.9742    5.1618    8.0608 N   0  0  0  0  0  0  0  0  0  0  0  0
   27.3530   10.1616    2.6247 O   0  0  0  0  0  0  0  0  0  0  0  0
   37.9724    6.4308   -2.0714 C   0  0  0  0  0  0  0  0  0  0  0  0
   25.3874    5.6116    8.6450 O   0  0  0  0  0  0  0  0  0  0  0  0
   27.1224    8.0256    9.6807 O   0  0  0  0  0  0  0  0  0  0  0  0
   36.2603    6.5856   -0.4449 C   0  0  0  0  0  0  0  0  0  0  0  0
   37.3810    6.9179   -3.2155 C   0  0  0  0  0  0  0  0  0  0  0  0
   37.6167    7.2167   -1.0560 C   0  0  1  0  0  0  0  0  0  0  0  0
   25.5853    8.1681    2.5751 F   0  0  0  0  0  0  0  0  0  0  0  0
  1  2  1  1  0  0  0
  1 10  1  0  0  0  0
  1  3  1  0  0  0  0
  3  4  1  1  0  0  0
  3  6  1  0  0  0  0
  5 46  2  0  0  0  0
  6 42  1  6  0  0  0
  6  8  1  0  0  0  0
  7 47  1  0  0  0  0
  8  9  1  0  0  0  0
  8 49  1  6  0  0  0
  9 10  1  0  0  0  0
  9 11  1  6  0  0  0
 11 12  1  0  0  0  0
 13 14  1  6  0  0  0
 13 15  1  0  0  0  0
 13 21  1  0  0  0  0
 14 46  1  0  0  0  0
 15 16  1  0  0  0  0
 16 17  1  6  0  0  0
 16 18  1  0  0  0  0
 18  2  1  1  0  0  0
 18 19  1  0  0  0  0
 19 20  1  1  0  0  0
 19 21  1  0  0  0  0
 21 22  1  1  0  0  0
 23 20  1  1  0  0  0
 23 24  1  0  0  0  0
 23 28  1  0  0  0  0
 24 25  1  6  0  0  0
 24 26  1  0  0  0  0
 26 27  1  0  0  0  0
 26 32  1  6  0  0  0
 27 28  1  0  0  0  0
 27 29  1  6  0  0  0
 29 30  1  0  0  0  0
 31 32  1  6  0  0  0
 31 33  1  0  0  0  0
 31 39  1  0  0  0  0
 33 36  1  0  0  0  0
 33 41  1  6  0  0  0
 34 40  1  0  0  0  0
 35 48  1  0  0  0  0
 36 37  1  0  0  0  0
 36 45  1  6  0  0  0
 37 38  1  0  0  0  0
 37 44  1  6  0  0  0
 38 39  1  0  0  0  0
 38 40  1  6  0  0  0
 43 47  1  0  0  0  0
 46 48  1  0  0  0  0
 48 43  1  6  0  0  0
M  END
>  <CHROM.1>
-73.23485339,-69.88777573,63.70469111,-87.90706837,77.94920247,49.34931374
-177.06648299,60.49660235,-60.12913251,-58.94211301,-63.13149474,-150.29786444
-93.34418384,30.23650956,7.35714963,3.51108822,0.68793022,-0.02449611,-1.58855593

>  <Name>
ligand

>  <RI>
0

>  <Rbt.Current_Directory>
/home/itssahil/PROJECTS/Mol_Feturizer/New_Systems/rnas/4PDQ

>  <Rbt.Executable>
rbdock ($Id: //depot/dev/client3/rdock/2013.1/src/exe/rbdock.cxx#4 $)

>  <Rbt.Library>
libRbt.so (2013.1, Build901 2013/11/27)

>  <Rbt.Parameter_File>
/export/apps/rDock/src/rDock_2013.1_src/data/scripts/dock_solv.prm

>  <Rbt.Receptor>
prm/pocket_docking_6.prm

>  <SCORE>
-6.21922

>  <SCORE.INTER>
3.02818

>  <SCORE.INTER.CONST>
1

>  <SCORE.INTER.POLAR>
0

>  <SCORE.INTER.ROT>
13

>  <SCORE.INTER.SOLV>
13.3432

>  <SCORE.INTER.VDW>
-14.6956

>  <SCORE.INTER.norm>
0.0617997

>  <SCORE.INTRA>
-9.2474

>  <SCORE.INTRA.DIHEDRAL>
-26.4168

>  <SCORE.INTRA.DIHEDRAL.0>
34.5115

>  <SCORE.INTRA.POLAR>
0

>  <SCORE.INTRA.POLAR.0>
0

>  <SCORE.INTRA.REPUL>
0

>  <SCORE.INTRA.REPUL.0>
0

>  <SCORE.INTRA.SOLV>
7.26992

>  <SCORE.INTRA.SOLV.lig_0>
-122.812

>  <SCORE.INTRA.VDW>
0.326058

>  <SCORE.INTRA.VDW.0>
-7.46208

>  <SCORE.INTRA.norm>
-0.188722

>  <SCORE.RESTR>
0

>  <SCORE.RESTR.CAVITY>
0

>  <SCORE.RESTR.norm>
0

>  <SCORE.SYSTEM>
0

>  <SCORE.SYSTEM.CONST>
0

>  <SCORE.SYSTEM.DIHEDRAL>
0

>  <SCORE.SYSTEM.SOLV>
0

>  <SCORE.SYSTEM.norm>
0

>  <SCORE.heavy>
49

>  <SCORE.norm>
-0.126923

>  <RMSD>
5.153

$$$$
ligand
 OpenBabel11021811513D
libRbt.so/2013.1/901 2013/11/27
 49 52  0  0  0  0  0  0  0  0999 V2000
   27.1805    6.5842    4.2479 C   0  0  2  0  0  0  0  0  0  0  0  0
   28.2551    5.6995    4.1280 O   0  0  0  0  0  0  0  0  0  0  0  0
   25.8832    5.7916    4.6554 C   0  0  2  0  0  0  0  0  0  0  0  0
   26.1300    5.0758    5.9742 N   0  0  0  0  0  0  0  0  0  0  0  0
   33.1637    6.9998    1.4141 O   0  0  0  0  0  0  0  0  0  0  0  0
   25.4866    4.7973    3.5392 C   0  0  2  0  0  0  0  0  0  0  0  0
   38.1400    7.3844    0.1115 N   0  0  0  0  0  0  0  0  0  0  0  0
   25.2621    5.5408    2.2132 C   0  0  2  0  0  0  0  0  0  0  0  0
   26.5508    6.3548    1.7700 C   0  0  2  0  0  0  0  0  0  0  0  0
   26.9360    7.2837    2.9229 O   0  0  0  0  0  0  0  0  0  0  0  0
   26.2979    7.1494    0.4560 C   0  0  0  0  0  0  0  0  0  0  0  0
   25.3738    8.2167    0.6002 N   0  0  0  0  0  0  0  0  0  0  0  0
   32.5599    5.3539    3.7381 C   0  0  2  0  0  0  0  0  0  0  0  0
   33.9198    5.4435    3.1299 N   0  0  0  0  0  0  0  0  0  0  0  0
   31.5882    4.7269    2.6249 C   0  0  0  0  0  0  0  0  0  0  0  0
   30.1286    4.5734    3.1942 C   0  0  2  0  0  0  0  0  0  0  0  0
   29.2239    4.0184    2.1767 N   0  0  0  0  0  0  0  0  0  0  0  0
   29.5791    5.9458    3.6320 C   0  0  2  0  0  0  0  0  0  0  0  0
   30.5178    6.5944    4.7279 C   0  0  2  0  0  0  0  0  0  0  0  0
   29.9059    7.8902    5.0827 O   0  0  0  0  0  0  0  0  0  0  0  0
   31.9884    6.8010    4.0985 C   0  0  1  0  0  0  0  0  0  0  0  0
   32.7963    7.3793    5.0745 O   0  0  0  0  0  0  0  0  0  0  0  0
   28.9891    8.1001    5.9650 C   0  0  1  0  0  0  0  0  0  0  0  0
   29.1742    7.3573    7.3209 C   0  0  2  0  0  0  0  0  0  0  0  0
   28.5170    6.1322    7.2366 O   0  0  0  0  0  0  0  0  0  0  0  0
   28.4523    8.3026    8.1888 C   0  0  1  0  0  0  0  0  0  0  0  0
   28.7813    9.7504    7.7102 C   0  0  2  0  0  0  0  0  0  0  0  0
   28.7911    9.5061    6.3250 O   0  0  0  0  0  0  0  0  0  0  0  0
   29.9963   10.4538    8.3166 C   0  0  0  0  0  0  0  0  0  0  0  0
   29.9834   11.7749    7.8096 O   0  0  0  0  0  0  0  0  0  0  0  0
   26.1196    8.6115    8.8866 C   0  0  2  0  0  0  0  0  0  0  0  0
   26.9970    7.9668    8.0631 O   0  0  0  0  0  0  0  0  0  0  0  0
   24.6925    8.2915    8.5518 C   0  0  1  0  0  0  0  0  0  0  0  0
   24.7874   13.3423   10.6639 N   0  0  0  0  0  0  0  0  0  0  0  0
   35.6298    5.9579    0.0233 O   0  0  0  0  0  0  0  0  0  0  0  0
   23.7359    9.1071    9.5056 C   0  0  2  0  0  0  0  0  0  0  0  0
   23.9612   10.6578    9.4470 C   0  0  1  0  0  0  0  0  0  0  0  0
   25.3371   10.9411    9.7819 C   0  0  1  0  0  0  0  0  0  0  0  0
   26.2787   10.1678    8.8783 O   0  0  0  0  0  0  0  0  0  0  0  0
   25.6231   12.5042    9.6922 C   0  0  0  0  0  0  0  0  0  0  0  0
   24.4117    8.6698    7.2236 N   0  0  0  0  0  0  0  0  0  0  0  0
   24.5212    4.2646    3.8402 O   0  0  0  0  0  0  0  0  0  0  0  0
   36.0495    7.5762    1.5611 C   0  0  0  0  0  0  0  0  0  0  0  0
   23.7593   11.0120    8.3741 O   0  0  0  0  0  0  0  0  0  0  0  0
   23.9481    8.7824   10.5886 O   0  0  0  0  0  0  0  0  0  0  0  0
   34.0705    6.3323    1.9315 C   0  0  0  0  0  0  0  0  0  0  0  0
   37.4032    7.5728    1.3092 C   0  0  0  0  0  0  0  0  0  0  0  0
   35.5960    6.3339    1.3984 C   0  0  1  0  0  0  0  0  0  0  0  0
   24.1958    6.4477    2.3471 F   0  0  0  0  0  0  0  0  0  0  0  0
  1  2  1  6  0  0  0
  1 10  1  0  0  0  0
  1  3  1  0  0  0  0
  3  4  1  1  0  0  0
  3  6  1  0  0  0  0
  5 46  2  0  0  0  0
  6 42  1  1  0  0  0
  6  8  1  0  0  0  0
  7 47  1  0  0  0  0
  8  9  1  0  0  0  0
  8 49  1  1  0  0  0
  9 10  1  0  0  0  0
  9 11  1  6  0  0  0
 11 12  1  0  0  0  0
 13 14  1  6  0  0  0
 13 15  1  0  0  0  0
 13 21  1  0  0  0  0
 14 46  1  0  0  0  0
 15 16  1  0  0  0  0
 16 17  1  6  0  0  0
 16 18  1  0  0  0  0
 18  2  1  1  0  0  0
 18 19  1  0  0  0  0
 19 20  1  6  0  0  0
 19 21  1  0  0  0  0
 21 22  1  1  0  0  0
 23 20  1  6  0  0  0
 23 24  1  0  0  0  0
 23 28  1  0  0  0  0
 24 25  1  6  0  0  0
 24 26  1  0  0  0  0
 26 27  1  0  0  0  0
 26 32  1  6  0  0  0
 27 28  1  0  0  0  0
 27 29  1  1  0  0  0
 29 30  1  0  0  0  0
 31 32  1  6  0  0  0
 31 33  1  0  0  0  0
 31 39  1  0  0  0  0
 33 36  1  0  0  0  0
 33 41  1  6  0  0  0
 34 40  1  0  0  0  0
 35 48  1  0  0  0  0
 36 37  1  0  0  0  0
 36 45  1  1  0  0  0
 37 38  1  0  0  0  0
 37 44  1  6  0  0  0
 38 39  1  0  0  0  0
 38 40  1  6  0  0  0
 43 47  1  0  0  0  0
 46 48  1  0  0  0  0
 48 43  1  6  0  0  0
M  END
>  <CHROM.1>
172.04197210,-157.44698804,67.98840852,62.45773273,86.26546700,43.75273901
173.06830366,-174.51326735,173.77158543,61.63733463,68.83040968,-69.54537431
-56.61483524,28.67350128,7.59929487,5.10918236,2.45995728,0.16109987,0.92326127

>  <Name>
ligand

>  <RI>
0

>  <Rbt.Current_Directory>
/home/itssahil/PROJECTS/Mol_Feturizer/New_Systems/rnas/4PDQ

>  <Rbt.Executable>
rbdock ($Id: //depot/dev/client3/rdock/2013.1/src/exe/rbdock.cxx#4 $)

>  <Rbt.Library>
libRbt.so (2013.1, Build901 2013/11/27)

>  <Rbt.Parameter_File>
/export/apps/rDock/src/rDock_2013.1_src/data/scripts/dock_solv.prm

>  <Rbt.Receptor>
prm/pocket_docking_7.prm

>  <SCORE>
-14.477

>  <SCORE.INTER>
-5.92431

>  <SCORE.INTER.CONST>
1

>  <SCORE.INTER.POLAR>
0

>  <SCORE.INTER.ROT>
13

>  <SCORE.INTER.SOLV>
13.0714

>  <SCORE.INTER.VDW>
-20.5733

>  <SCORE.INTER.norm>
-0.120904

>  <SCORE.INTRA>
-8.55264

>  <SCORE.INTRA.DIHEDRAL>
-23.9515

>  <SCORE.INTRA.DIHEDRAL.0>
34.5115

>  <SCORE.INTRA.POLAR>
0

>  <SCORE.INTRA.POLAR.0>
0

>  <SCORE.INTRA.REPUL>
0

>  <SCORE.INTRA.REPUL.0>
0

>  <SCORE.INTRA.SOLV>
2.94204

>  <SCORE.INTRA.SOLV.lig_0>
-122.812

>  <SCORE.INTRA.VDW>
1.95207

>  <SCORE.INTRA.VDW.0>
-7.46208

>  <SCORE.INTRA.norm>
-0.174544

>  <SCORE.RESTR>
0

>  <SCORE.RESTR.CAVITY>
0

>  <SCORE.RESTR.norm>
0

>  <SCORE.SYSTEM>
0

>  <SCORE.SYSTEM.CONST>
0

>  <SCORE.SYSTEM.DIHEDRAL>
0

>  <SCORE.SYSTEM.SOLV>
0

>  <SCORE.SYSTEM.norm>
0

>  <SCORE.heavy>
49

>  <SCORE.norm>
-0.295448

>  <RMSD>
5.190

$$$$
ligand
 OpenBabel11021811513D
libRbt.so/2013.1/901 2013/11/27
 49 52  0  0  0  0  0  0  0  0999 V2000
   28.7272    7.4745    5.1848 C   0  0  2  0  0  0  0  0  0  0  0  0
   29.8062    6.7394    4.6875 O   0  0  0  0  0  0  0  0  0  0  0  0
   27.8336    6.5546    6.0971 C   0  0  2  0  0  0  0  0  0  0  0  0
   28.6786    6.0145    7.2402 N   0  0  0  0  0  0  0  0  0  0  0  0
   35.3308    4.9654    1.7032 O   0  0  0  0  0  0  0  0  0  0  0  0
   27.2133    5.4090    5.2637 C   0  0  2  0  0  0  0  0  0  0  0  0
   38.4953    8.2764   -1.4024 N   0  0  0  0  0  0  0  0  0  0  0  0
   26.3812    5.9788    4.1041 C   0  0  2  0  0  0  0  0  0  0  0  0
   27.2498    6.9151    3.1615 C   0  0  2  0  0  0  0  0  0  0  0  0
   27.8846    7.9982    4.0357 O   0  0  0  0  0  0  0  0  0  0  0  0
   26.3880    7.5324    2.0223 C   0  0  0  0  0  0  0  0  0  0  0  0
   25.4153    8.4601    2.4775 N   0  0  0  0  0  0  0  0  0  0  0  0
   33.7159    7.1004    2.8471 C   0  0  2  0  0  0  0  0  0  0  0  0
   34.7498    7.3301    1.7957 N   0  0  0  0  0  0  0  0  0  0  0  0
   32.5990    6.1425    2.2057 C   0  0  0  0  0  0  0  0  0  0  0  0
   31.4748    5.8269    3.2615 C   0  0  2  0  0  0  0  0  0  0  0  0
   30.4346    4.9660    2.6794 N   0  0  0  0  0  0  0  0  0  0  0  0
   30.8090    7.1329    3.7392 C   0  0  2  0  0  0  0  0  0  0  0  0
   31.8852    8.1033    4.3741 C   0  0  2  0  0  0  0  0  0  0  0  0
   31.1520    9.3106    4.8031 O   0  0  0  0  0  0  0  0  0  0  0  0
   32.9884    8.4627    3.2537 C   0  0  1  0  0  0  0  0  0  0  0  0
   33.9208    9.3226    3.8289 O   0  0  0  0  0  0  0  0  0  0  0  0
   30.5538    9.4959    5.9303 C   0  0  1  0  0  0  0  0  0  0  0  0
   31.4047    9.2067    7.2019 C   0  0  2  0  0  0  0  0  0  0  0  0
   31.2109    7.8743    7.5585 O   0  0  0  0  0  0  0  0  0  0  0  0
   30.7253   10.1227    8.1332 C   0  0  1  0  0  0  0  0  0  0  0  0
   30.3724   11.4299    7.3584 C   0  0  2  0  0  0  0  0  0  0  0  0
   30.0186   10.8449    6.1292 O   0  0  0  0  0  0  0  0  0  0  0  0
   31.4040   12.5588    7.3377 C   0  0  0  0  0  0  0  0  0  0  0  0
   31.6802   12.8681    8.6907 O   0  0  0  0  0  0  0  0  0  0  0  0
   28.7635    9.9976    9.6026 C   0  0  2  0  0  0  0  0  0  0  0  0
   29.5115    9.3979    8.6308 O   0  0  0  0  0  0  0  0  0  0  0  0
   27.7375    9.0672   10.1795 C   0  0  1  0  0  0  0  0  0  0  0  0
   27.5180   14.3297    9.0002 N   0  0  0  0  0  0  0  0  0  0  0  0
   35.8992    7.1358   -0.9353 O   0  0  0  0  0  0  0  0  0  0  0  0
   26.8786    9.8380   11.2558 C   0  0  2  0  0  0  0  0  0  0  0  0
   26.1766   11.1241   10.6974 C   0  0  1  0  0  0  0  0  0  0  0  0
   27.1837   12.0070   10.1573 C   0  0  1  0  0  0  0  0  0  0  0  0
   28.0246   11.2888    9.1189 O   0  0  0  0  0  0  0  0  0  0  0  0
   26.5106   13.3095    9.5382 C   0  0  0  0  0  0  0  0  0  0  0  0
   26.8674    8.6193    9.1652 N   0  0  0  0  0  0  0  0  0  0  0  0
   26.5379    4.7805    5.9383 O   0  0  0  0  0  0  0  0  0  0  0  0
   37.4158    7.3971    0.7354 C   0  0  0  0  0  0  0  0  0  0  0  0
   25.4659   10.8099    9.8525 O   0  0  0  0  0  0  0  0  0  0  0  0
   27.5841   10.1843   12.0958 O   0  0  0  0  0  0  0  0  0  0  0  0
   35.5028    6.1278    1.3096 C   0  0  0  0  0  0  0  0  0  0  0  0
   38.4510    7.6221   -0.1443 C   0  0  0  0  0  0  0  0  0  0  0  0
   36.5725    6.5351    0.1688 C   0  0  1  0  0  0  0  0  0  0  0  0
   25.3114    6.7383    4.6102 F   0  0  0  0  0  0  0  0  0  0  0  0
  1  2  1  6  0  0  0
  1 10  1  0  0  0  0
  1  3  1  0  0  0  0
  3  4  1  1  0  0  0
  3  6  1  0  0  0  0
  5 46  2  0  0  0  0
  6 42  1  1  0  0  0
  6  8  1  0  0  0  0
  7 47  1  0  0  0  0
  8  9  1  0  0  0  0
  8 49  1  1  0  0  0
  9 10  1  0  0  0  0
  9 11  1  6  0  0  0
 11 12  1  0  0  0  0
 13 14  1  6  0  0  0
 13 15  1  0  0  0  0
 13 21  1  0  0  0  0
 14 46  1  0  0  0  0
 15 16  1  0  0  0  0
 16 17  1  6  0  0  0
 16 18  1  0  0  0  0
 18  2  1  1  0  0  0
 18 19  1  0  0  0  0
 19 20  1  6  0  0  0
 19 21  1  0  0  0  0
 21 22  1  1  0  0  0
 23 20  1  6  0  0  0
 23 24  1  0  0  0  0
 23 28  1  0  0  0  0
 24 25  1  1  0  0  0
 24 26  1  0  0  0  0
 26 27  1  0  0  0  0
 26 32  1  6  0  0  0
 27 28  1  0  0  0  0
 27 29  1  6  0  0  0
 29 30  1  0  0  0  0
 31 32  1  6  0  0  0
 31 33  1  0  0  0  0
 31 39  1  0  0  0  0
 33 36  1  0  0  0  0
 33 41  1  6  0  0  0
 34 40  1  0  0  0  0
 35 48  1  0  0  0  0
 36 37  1  0  0  0  0
 36 45  1  1  0  0  0
 37 38  1  0  0  0  0
 37 44  1  6  0  0  0
 38 39  1  0  0  0  0
 38 40  1  6  0  0  0
 43 47  1  0  0  0  0
 46 48  1  0  0  0  0
 48 43  1  1  0  0  0
M  END
>  <CHROM.1>
174.51168795,-163.75299710,67.35512985,-62.69997031,86.60439016,51.58442848
174.64883339,-56.39313086,-169.57501173,177.34626318,68.06931791,-68.97828316
119.63438147,30.25961204,8.51491546,5.45783708,2.36817661,0.35310197,0.83403205

>  <Name>
ligand

>  <RI>
0

>  <Rbt.Current_Directory>
/home/itssahil/PROJECTS/Mol_Feturizer/New_Systems/rnas/4PDQ

>  <Rbt.Executable>
rbdock ($Id: //depot/dev/client3/rdock/2013.1/src/exe/rbdock.cxx#4 $)

>  <Rbt.Library>
libRbt.so (2013.1, Build901 2013/11/27)

>  <Rbt.Parameter_File>
/export/apps/rDock/src/rDock_2013.1_src/data/scripts/dock_solv.prm

>  <Rbt.Receptor>
prm/pocket_docking_6.prm

>  <SCORE>
-15.7937

>  <SCORE.INTER>
-5.36847

>  <SCORE.INTER.CONST>
1

>  <SCORE.INTER.POLAR>
0

>  <SCORE.INTER.ROT>
13

>  <SCORE.INTER.SOLV>
11.8362

>  <SCORE.INTER.VDW>
-19.791

>  <SCORE.INTER.norm>
-0.109561

>  <SCORE.INTRA>
-10.4252

>  <SCORE.INTRA.DIHEDRAL>
-27.4849

>  <SCORE.INTRA.DIHEDRAL.0>
34.5115

>  <SCORE.INTRA.POLAR>
0

>  <SCORE.INTRA.POLAR.0>
0

>  <SCORE.INTRA.REPUL>
0

>  <SCORE.INTRA.REPUL.0>
0

>  <SCORE.INTRA.SOLV>
1.90527

>  <SCORE.INTRA.SOLV.lig_0>
-122.812

>  <SCORE.INTRA.VDW>
2.36465

>  <SCORE.INTRA.VDW.0>
-7.46208

>  <SCORE.INTRA.norm>
-0.212759

>  <SCORE.RESTR>
0

>  <SCORE.RESTR.CAVITY>
0

>  <SCORE.RESTR.norm>
0

>  <SCORE.SYSTEM>
0

>  <SCORE.SYSTEM.CONST>
0

>  <SCORE.SYSTEM.DIHEDRAL>
0

>  <SCORE.SYSTEM.SOLV>
0

>  <SCORE.SYSTEM.norm>
0

>  <SCORE.heavy>
49

>  <SCORE.norm>
-0.32232

>  <RMSD>
5.251

$$$$
ligand
 OpenBabel11021811513D
libRbt.so/2013.1/901 2013/11/27
 49 52  0  0  0  0  0  0  0  0999 V2000
   28.5537    7.2789    5.2916 C   0  0  2  0  0  0  0  0  0  0  0  0
   29.6074    6.5273    4.7653 O   0  0  0  0  0  0  0  0  0  0  0  0
   27.7012    6.3865    6.2684 C   0  0  2  0  0  0  0  0  0  0  0  0
   28.5969    5.8748    7.3857 N   0  0  0  0  0  0  0  0  0  0  0  0
   35.2364    4.8360    1.9631 O   0  0  0  0  0  0  0  0  0  0  0  0
   27.0412    5.2208    5.4955 C   0  0  2  0  0  0  0  0  0  0  0  0
   39.4159    8.4767    0.2391 N   0  0  0  0  0  0  0  0  0  0  0  0
   26.1578    5.7618    4.3604 C   0  0  2  0  0  0  0  0  0  0  0  0
   26.9839    6.6697    3.3540 C   0  0  2  0  0  0  0  0  0  0  0  0
   27.6602    7.7740    4.1686 O   0  0  0  0  0  0  0  0  0  0  0  0
   26.0718    7.2589    2.2392 C   0  0  0  0  0  0  0  0  0  0  0  0
   26.7680    8.0455    1.2849 N   0  0  0  0  0  0  0  0  0  0  0  0
   33.5580    6.9613    3.0311 C   0  0  2  0  0  0  0  0  0  0  0  0
   34.6157    7.1920    2.0040 N   0  0  0  0  0  0  0  0  0  0  0  0
   32.4935    5.9460    2.3888 C   0  0  0  0  0  0  0  0  0  0  0  0
   31.3482    5.6266    3.4206 C   0  0  2  0  0  0  0  0  0  0  0  0
   30.3554    4.7128    2.8366 N   0  0  0  0  0  0  0  0  0  0  0  0
   30.6255    6.9239    3.8348 C   0  0  2  0  0  0  0  0  0  0  0  0
   31.6492    7.9500    4.4690 C   0  0  2  0  0  0  0  0  0  0  0  0
   30.8638    9.1450    4.8359 O   0  0  0  0  0  0  0  0  0  0  0  0
   32.7739    8.3105    3.3706 C   0  0  1  0  0  0  0  0  0  0  0  0
   33.6594    9.2195    3.9446 O   0  0  0  0  0  0  0  0  0  0  0  0
   30.3466    9.4107    5.9869 C   0  0  1  0  0  0  0  0  0  0  0  0
   31.3374    9.4125    7.1881 C   0  0  2  0  0  0  0  0  0  0  0  0
   31.3621    8.1300    7.7308 O   0  0  0  0  0  0  0  0  0  0  0  0
   30.6217   10.3581    8.0609 C   0  0  1  0  0  0  0  0  0  0  0  0
   30.0246   11.4884    7.1668 C   0  0  2  0  0  0  0  0  0  0  0  0
   29.6491   10.6963    6.0668 O   0  0  0  0  0  0  0  0  0  0  0  0
   30.8839   12.7235    6.8931 C   0  0  0  0  0  0  0  0  0  0  0  0
   32.0147   12.2682    6.1743 O   0  0  0  0  0  0  0  0  0  0  0  0
   28.8680   10.1808    9.7688 C   0  0  2  0  0  0  0  0  0  0  0  0
   29.5683    9.5641    8.7724 O   0  0  0  0  0  0  0  0  0  0  0  0
   27.9533    9.2322   10.4861 C   0  0  1  0  0  0  0  0  0  0  0  0
   25.8995   14.3523   10.7410 N   0  0  0  0  0  0  0  0  0  0  0  0
   35.8344    6.8732   -0.7357 O   0  0  0  0  0  0  0  0  0  0  0  0
   27.1408   10.0198   11.5859 C   0  0  2  0  0  0  0  0  0  0  0  0
   26.3163   11.2258   11.0163 C   0  0  1  0  0  0  0  0  0  0  0  0
   27.2183   12.1284   10.3400 C   0  0  1  0  0  0  0  0  0  0  0  0
   28.0127   11.3946    9.2763 O   0  0  0  0  0  0  0  0  0  0  0  0
   26.4164   13.3485    9.7065 C   0  0  0  0  0  0  0  0  0  0  0  0
   27.0314    8.6720    9.5792 N   0  0  0  0  0  0  0  0  0  0  0  0
   26.3964    4.6128    6.2172 O   0  0  0  0  0  0  0  0  0  0  0  0
   37.2429    7.3629    0.9779 C   0  0  0  0  0  0  0  0  0  0  0  0
   25.5586   10.8187   10.2561 O   0  0  0  0  0  0  0  0  0  0  0  0
   27.8909   10.4584   12.3398 O   0  0  0  0  0  0  0  0  0  0  0  0
   35.4003    5.9950    1.5564 C   0  0  0  0  0  0  0  0  0  0  0  0
   38.3320    7.5647    0.1599 C   0  0  0  0  0  0  0  0  0  0  0  0
   36.4934    6.4026    0.4381 C   0  0  1  0  0  0  0  0  0  0  0  0
   25.1138    6.5379    4.8943 F   0  0  0  0  0  0  0  0  0  0  0  0
  1  2  1  6  0  0  0
  1 10  1  0  0  0  0
  1  3  1  0  0  0  0
  3  4  1  1  0  0  0
  3  6  1  0  0  0  0
  5 46  2  0  0  0  0
  6 42  1  1  0  0  0
  6  8  1  0  0  0  0
  7 47  1  0  0  0  0
  8  9  1  0  0  0  0
  8 49  1  1  0  0  0
  9 10  1  0  0  0  0
  9 11  1  6  0  0  0
 11 12  1  0  0  0  0
 13 14  1  6  0  0  0
 13 15  1  0  0  0  0
 13 21  1  0  0  0  0
 14 46  1  0  0  0  0
 15 16  1  0  0  0  0
 16 17  1  6  0  0  0
 16 18  1  0  0  0  0
 18  2  1  1  0  0  0
 18 19  1  0  0  0  0
 19 20  1  6  0  0  0
 19 21  1  0  0  0  0
 21 22  1  1  0  0  0
 23 20  1  6  0  0  0
 23 24  1  0  0  0  0
 23 28  1  0  0  0  0
 24 25  1  1  0  0  0
 24 26  1  0  0  0  0
 26 27  1  0  0  0  0
 26 32  1  6  0  0  0
 27 28  1  0  0  0  0
 27 29  1  6  0  0  0
 29 30  1  0  0  0  0
 31 32  1  6  0  0  0
 31 33  1  0  0  0  0
 31 39  1  0  0  0  0
 33 36  1  0  0  0  0
 33 41  1  6  0  0  0
 34 40  1  0  0  0  0
 35 48  1  0  0  0  0
 36 37  1  0  0  0  0
 36 45  1  1  0  0  0
 37 38  1  0  0  0  0
 37 44  1  6  0  0  0
 38 39  1  0  0  0  0
 38 40  1  6  0  0  0
 43 47  1  0  0  0  0
 46 48  1  0  0  0  0
 48 43  1  1  0  0  0
M  END
>  <CHROM.1>
179.61936068,-169.74682193,-178.07709378,-61.27590208,94.72974486,55.56276900
172.14297402,63.29225453,-174.00235453,72.39657815,178.29539286,-71.49732251
114.87317454,30.18385063,8.44338606,5.59280642,2.36911003,0.35521924,0.80965996

>  <Name>
ligand

>  <RI>
0

>  <Rbt.Current_Directory>
/home/itssahil/PROJECTS/Mol_Feturizer/New_Systems/rnas/4PDQ

>  <Rbt.Executable>
rbdock ($Id: //depot/dev/client3/rdock/2013.1/src/exe/rbdock.cxx#4 $)

>  <Rbt.Library>
libRbt.so (2013.1, Build901 2013/11/27)

>  <Rbt.Parameter_File>
/export/apps/rDock/src/rDock_2013.1_src/data/scripts/dock_solv.prm

>  <Rbt.Receptor>
prm/pocket_docking_7.prm

>  <SCORE>
-16.4571

>  <SCORE.INTER>
-4.36785

>  <SCORE.INTER.CONST>
1

>  <SCORE.INTER.POLAR>
0

>  <SCORE.INTER.ROT>
13

>  <SCORE.INTER.SOLV>
12.8672

>  <SCORE.INTER.VDW>
-19.4676

>  <SCORE.INTER.norm>
-0.0891398

>  <SCORE.INTRA>
-12.0892

>  <SCORE.INTRA.DIHEDRAL>
-26.9998

>  <SCORE.INTRA.DIHEDRAL.0>
34.5115

>  <SCORE.INTRA.POLAR>
0

>  <SCORE.INTRA.POLAR.0>
0

>  <SCORE.INTRA.REPUL>
0

>  <SCORE.INTRA.REPUL.0>
0

>  <SCORE.INTRA.SOLV>
-2.27578

>  <SCORE.INTRA.SOLV.lig_0>
-122.812

>  <SCORE.INTRA.VDW>
2.54854

>  <SCORE.INTRA.VDW.0>
-7.46208

>  <SCORE.INTRA.norm>
-0.246719

>  <SCORE.RESTR>
0

>  <SCORE.RESTR.CAVITY>
0

>  <SCORE.RESTR.norm>
0

>  <SCORE.SYSTEM>
0

>  <SCORE.SYSTEM.CONST>
0

>  <SCORE.SYSTEM.DIHEDRAL>
0

>  <SCORE.SYSTEM.SOLV>
0

>  <SCORE.SYSTEM.norm>
0

>  <SCORE.heavy>
49

>  <SCORE.norm>
-0.335859

>  <RMSD>
5.255

$$$$
ligand
 OpenBabel11021811513D
libRbt.so/2013.1/901 2013/11/27
 49 52  0  0  0  0  0  0  0  0999 V2000
   29.3899    7.6486    5.9800 C   0  0  2  0  0  0  0  0  0  0  0  0
   30.6299    7.4716    5.3612 O   0  0  0  0  0  0  0  0  0  0  0  0
   29.1186    6.4596    6.9750 C   0  0  2  0  0  0  0  0  0  0  0  0
   30.2281    6.4161    8.0140 N   0  0  0  0  0  0  0  0  0  0  0  0
   32.2075   10.2240    0.5436 O   0  0  0  0  0  0  0  0  0  0  0  0
   29.0161    5.1236    6.2026 C   0  0  2  0  0  0  0  0  0  0  0  0
   34.9955   10.7072   -3.5278 N   0  0  0  0  0  0  0  0  0  0  0  0
   27.9027    5.1987    5.1461 C   0  0  2  0  0  0  0  0  0  0  0  0
   28.1413    6.3894    4.1239 C   0  0  2  0  0  0  0  0  0  0  0  0
   28.2895    7.6783    4.9345 O   0  0  0  0  0  0  0  0  0  0  0  0
   26.9819    6.4939    3.0912 C   0  0  0  0  0  0  0  0  0  0  0  0
   27.1839    7.4904    2.1012 N   0  0  0  0  0  0  0  0  0  0  0  0
   33.6476    9.4414    2.9495 C   0  0  2  0  0  0  0  0  0  0  0  0
   34.3156   10.0255    1.7496 N   0  0  0  0  0  0  0  0  0  0  0  0
   33.0572    8.0149    2.5102 C   0  0  0  0  0  0  0  0  0  0  0  0
   32.3521    7.3135    3.7305 C   0  0  2  0  0  0  0  0  0  0  0  0
   31.7891    6.0139    3.3355 N   0  0  0  0  0  0  0  0  0  0  0  0
   31.2047    8.1949    4.2629 C   0  0  2  0  0  0  0  0  0  0  0  0
   31.7529    9.6127    4.7015 C   0  0  2  0  0  0  0  0  0  0  0  0
   30.5881   10.3711    5.1989 O   0  0  0  0  0  0  0  0  0  0  0  0
   32.4112   10.3365    3.4192 C   0  0  1  0  0  0  0  0  0  0  0  0
   32.8800   11.5841    3.8235 O   0  0  0  0  0  0  0  0  0  0  0  0
   30.0813   10.3267    6.3838 C   0  0  1  0  0  0  0  0  0  0  0  0
   31.1038   10.3656    7.5575 C   0  0  2  0  0  0  0  0  0  0  0  0
   31.4412    9.0537    7.8813 O   0  0  0  0  0  0  0  0  0  0  0  0
   30.2381   10.9727    8.5822 C   0  0  1  0  0  0  0  0  0  0  0  0
   29.3605   12.0630    7.8932 C   0  0  2  0  0  0  0  0  0  0  0  0
   29.1186   11.3897    6.6822 O   0  0  0  0  0  0  0  0  0  0  0  0
   29.9074   13.4892    7.8167 C   0  0  0  0  0  0  0  0  0  0  0  0
   28.8593   14.2883    7.3012 O   0  0  0  0  0  0  0  0  0  0  0  0
   28.6889   10.1206   10.2843 C   0  0  2  0  0  0  0  0  0  0  0  0
   29.4249    9.8569    9.1653 O   0  0  0  0  0  0  0  0  0  0  0  0
   28.0524    8.8832   10.8455 C   0  0  1  0  0  0  0  0  0  0  0  0
   26.2244   13.9237   10.3460 N   0  0  0  0  0  0  0  0  0  0  0  0
   35.0721   12.1059   -0.1492 O   0  0  0  0  0  0  0  0  0  0  0  0
   27.1789    9.2680   12.1021 C   0  0  2  0  0  0  0  0  0  0  0  0
   26.0775   10.3420   11.7981 C   0  0  1  0  0  0  0  0  0  0  0  0
   26.7145   11.5252   11.2692 C   0  0  1  0  0  0  0  0  0  0  0  0
   27.5618   11.1817   10.0587 O   0  0  0  0  0  0  0  0  0  0  0  0
   25.6274   12.6288   10.9043 C   0  0  0  0  0  0  0  0  0  0  0  0
   27.2024    8.2994    9.8847 N   0  0  0  0  0  0  0  0  0  0  0  0
   28.7788    4.2836    6.9405 O   0  0  0  0  0  0  0  0  0  0  0  0
   35.0923   10.0296   -1.0702 C   0  0  0  0  0  0  0  0  0  0  0  0
   25.3667    9.9159   11.0039 O   0  0  0  0  0  0  0  0  0  0  0  0
   27.8753    9.7237   12.8963 O   0  0  0  0  0  0  0  0  0  0  0  0
   33.4369   10.3741    0.5855 C   0  0  0  0  0  0  0  0  0  0  0  0
   35.6132   10.4221   -2.2829 C   0  0  0  0  0  0  0  0  0  0  0  0
   34.3011   11.0050   -0.6255 C   0  0  1  0  0  0  0  0  0  0  0  0
   26.6605    5.4019    5.7729 F   0  0  0  0  0  0  0  0  0  0  0  0
  1  2  1  6  0  0  0
  1 10  1  0  0  0  0
  1  3  1  0  0  0  0
  3  4  1  1  0  0  0
  3  6  1  0  0  0  0
  5 46  2  0  0  0  0
  6 42  1  1  0  0  0
  6  8  1  0  0  0  0
  7 47  1  0  0  0  0
  8  9  1  0  0  0  0
  8 49  1  1  0  0  0
  9 10  1  0  0  0  0
  9 11  1  6  0  0  0
 11 12  1  0  0  0  0
 13 14  1  6  0  0  0
 13 15  1  0  0  0  0
 13 21  1  0  0  0  0
 14 46  1  0  0  0  0
 15 16  1  0  0  0  0
 16 17  1  6  0  0  0
 16 18  1  0  0  0  0
 18  2  1  1  0  0  0
 18 19  1  0  0  0  0
 19 20  1  6  0  0  0
 19 21  1  0  0  0  0
 21 22  1  1  0  0  0
 23 20  1  6  0  0  0
 23 24  1  0  0  0  0
 23 28  1  0  0  0  0
 24 25  1  1  0  0  0
 24 26  1  0  0  0  0
 26 27  1  0  0  0  0
 26 32  1  6  0  0  0
 27 28  1  0  0  0  0
 27 29  1  6  0  0  0
 29 30  1  0  0  0  0
 31 32  1  6  0  0  0
 31 33  1  0  0  0  0
 31 39  1  0  0  0  0
 33 36  1  0  0  0  0
 33 41  1  6  0  0  0
 34 40  1  0  0  0  0
 35 48  1  0  0  0  0
 36 37  1  0  0  0  0
 36 45  1  1  0  0  0
 37 38  1  0  0  0  0
 37 44  1  6  0  0  0
 38 39  1  0  0  0  0
 38 40  1  6  0  0  0
 43 47  1  0  0  0  0
 46 48  1  0  0  0  0
 48 43  1  1  0  0  0
M  END
>  <CHROM.1>
170.59263746,-162.80969748,-176.31448127,65.48337372,83.92257093,44.59283866
169.97450920,-173.06960318,-173.52999514,179.50994126,-63.29418917,-74.28489751
125.33446671,30.02875618,9.37764742,5.82436534,2.67868906,0.92372068,0.53642922

>  <Name>
ligand

>  <RI>
0

>  <Rbt.Current_Directory>
/home/itssahil/PROJECTS/Mol_Feturizer/New_Systems/rnas/4PDQ

>  <Rbt.Executable>
rbdock ($Id: //depot/dev/client3/rdock/2013.1/src/exe/rbdock.cxx#4 $)

>  <Rbt.Library>
libRbt.so (2013.1, Build901 2013/11/27)

>  <Rbt.Parameter_File>
/export/apps/rDock/src/rDock_2013.1_src/data/scripts/dock_solv.prm

>  <Rbt.Receptor>
prm/pocket_docking_7.prm

>  <SCORE>
-11.6833

>  <SCORE.INTER>
-0.755449

>  <SCORE.INTER.CONST>
1

>  <SCORE.INTER.POLAR>
0

>  <SCORE.INTER.ROT>
13

>  <SCORE.INTER.SOLV>
16.3102

>  <SCORE.INTER.VDW>
-18.207

>  <SCORE.INTER.norm>
-0.0154173

>  <SCORE.INTRA>
-10.9279

>  <SCORE.INTRA.DIHEDRAL>
-26.5582

>  <SCORE.INTRA.DIHEDRAL.0>
34.5115

>  <SCORE.INTRA.POLAR>
0

>  <SCORE.INTRA.POLAR.0>
0

>  <SCORE.INTRA.REPUL>
0

>  <SCORE.INTRA.REPUL.0>
0

>  <SCORE.INTRA.SOLV>
0.612668

>  <SCORE.INTRA.SOLV.lig_0>
-122.812

>  <SCORE.INTRA.VDW>
2.04488

>  <SCORE.INTRA.VDW.0>
-7.46208

>  <SCORE.INTRA.norm>
-0.223018

>  <SCORE.RESTR>
0

>  <SCORE.RESTR.CAVITY>
0

>  <SCORE.RESTR.norm>
0

>  <SCORE.SYSTEM>
0

>  <SCORE.SYSTEM.CONST>
0

>  <SCORE.SYSTEM.DIHEDRAL>
0

>  <SCORE.SYSTEM.SOLV>
0

>  <SCORE.SYSTEM.norm>
0

>  <SCORE.heavy>
49

>  <SCORE.norm>
-0.238435

>  <RMSD>
5.354

$$$$
ligand
 OpenBabel11021811513D
libRbt.so/2013.1/901 2013/11/27
 49 52  0  0  0  0  0  0  0  0999 V2000
   26.2672    8.6446    4.1270 C   0  0  2  0  0  0  0  0  0  0  0  0
   27.6273    8.3648    4.2815 O   0  0  0  0  0  0  0  0  0  0  0  0
   25.9422   10.0562    4.7427 C   0  0  2  0  0  0  0  0  0  0  0  0
   26.7833   11.1114    4.0415 N   0  0  0  0  0  0  0  0  0  0  0  0
   31.9228    4.9738    0.5450 O   0  0  0  0  0  0  0  0  0  0  0  0
   26.1998   10.0509    6.2676 C   0  0  2  0  0  0  0  0  0  0  0  0
   37.0741    7.0168   -1.1642 N   0  0  0  0  0  0  0  0  0  0  0  0
   25.3546    8.9644    6.9508 C   0  0  2  0  0  0  0  0  0  0  0  0
   25.6540    7.5244    6.3538 C   0  0  2  0  0  0  0  0  0  0  0  0
   25.4382    7.5919    4.8408 O   0  0  0  0  0  0  0  0  0  0  0  0
   24.7550    6.4376    7.0114 C   0  0  0  0  0  0  0  0  0  0  0  0
   25.1455    6.0920    8.3312 N   0  0  0  0  0  0  0  0  0  0  0  0
   31.2135    7.3542    2.0633 C   0  0  2  0  0  0  0  0  0  0  0  0
   32.2247    7.3549    0.9657 N   0  0  0  0  0  0  0  0  0  0  0  0
   29.7695    7.2441    1.3711 C   0  0  0  0  0  0  0  0  0  0  0  0
   28.6377    7.2119    2.4649 C   0  0  2  0  0  0  0  0  0  0  0  0
   27.3081    7.1315    1.8424 N   0  0  0  0  0  0  0  0  0  0  0  0
   28.6911    8.4895    3.3262 C   0  0  2  0  0  0  0  0  0  0  0  0
   30.1055    8.6308    4.0207 C   0  0  2  0  0  0  0  0  0  0  0  0
   30.0518    9.8701    4.8210 O   0  0  0  0  0  0  0  0  0  0  0  0
   31.2399    8.7275    2.8782 C   0  0  1  0  0  0  0  0  0  0  0  0
   32.4747    8.8591    3.5086 O   0  0  0  0  0  0  0  0  0  0  0  0
   29.6516    9.9896    6.0410 C   0  0  1  0  0  0  0  0  0  0  0  0
   30.5984    9.3932    7.1238 C   0  0  2  0  0  0  0  0  0  0  0  0
   30.2189    8.0725    7.3507 O   0  0  0  0  0  0  0  0  0  0  0  0
   30.2236   10.2671    8.2480 C   0  0  1  0  0  0  0  0  0  0  0  0
   30.0103   11.7091    7.6925 C   0  0  2  0  0  0  0  0  0  0  0  0
   29.3974   11.3658    6.4739 O   0  0  0  0  0  0  0  0  0  0  0  0
   31.2149   12.6500    7.6420 C   0  0  0  0  0  0  0  0  0  0  0  0
   31.6111   12.8588    8.9844 O   0  0  0  0  0  0  0  0  0  0  0  0
   28.3789   10.3614    9.8640 C   0  0  2  0  0  0  0  0  0  0  0  0
   28.9769    9.6837    8.8410 O   0  0  0  0  0  0  0  0  0  0  0  0
   27.4222    9.4965   10.6306 C   0  0  1  0  0  0  0  0  0  0  0  0
   25.1316   13.3940    8.8482 N   0  0  0  0  0  0  0  0  0  0  0  0
   33.1687    7.2116   -1.8145 O   0  0  0  0  0  0  0  0  0  0  0  0
   26.7318   10.3543   11.7609 C   0  0  2  0  0  0  0  0  0  0  0  0
   25.9860   11.6235   11.2208 C   0  0  1  0  0  0  0  0  0  0  0  0
   26.9280   12.4438   10.4962 C   0  0  1  0  0  0  0  0  0  0  0  0
   27.6068   11.6413    9.4024 O   0  0  0  0  0  0  0  0  0  0  0  0
   26.2030   13.7250    9.8911 C   0  0  0  0  0  0  0  0  0  0  0  0
   26.4146    9.0127    9.7721 N   0  0  0  0  0  0  0  0  0  0  0  0
   25.9183   11.0722    6.6968 O   0  0  0  0  0  0  0  0  0  0  0  0
   34.7211    6.5705   -0.2851 C   0  0  0  0  0  0  0  0  0  0  0  0
   25.1617   11.2790   10.5000 O   0  0  0  0  0  0  0  0  0  0  0  0
   27.5508   10.7308   12.4755 O   0  0  0  0  0  0  0  0  0  0  0  0
   32.4834    6.0467    0.2799 C   0  0  0  0  0  0  0  0  0  0  0  0
   35.7145    6.6179   -1.2374 C   0  0  0  0  0  0  0  0  0  0  0  0
   33.5881    6.2121   -0.8879 C   0  0  1  0  0  0  0  0  0  0  0  0
   23.9870    9.2376    6.7707 F   0  0  0  0  0  0  0  0  0  0  0  0
  1  2  1  1  0  0  0
  1 10  1  0  0  0  0
  1  3  1  0  0  0  0
  3  4  1  6  0  0  0
  3  6  1  0  0  0  0
  5 46  2  0  0  0  0
  6 42  1  1  0  0  0
  6  8  1  0  0  0  0
  7 47  1  0  0  0  0
  8  9  1  0  0  0  0
  8 49  1  6  0  0  0
  9 10  1  0  0  0  0
  9 11  1  1  0  0  0
 11 12  1  0  0  0  0
 13 14  1  6  0  0  0
 13 15  1  0  0  0  0
 13 21  1  0  0  0  0
 14 46  1  0  0  0  0
 15 16  1  0  0  0  0
 16 17  1  6  0  0  0
 16 18  1  0  0  0  0
 18  2  1  1  0  0  0
 18 19  1  0  0  0  0
 19 20  1  6  0  0  0
 19 21  1  0  0  0  0
 21 22  1  1  0  0  0
 23 20  1  6  0  0  0
 23 24  1  0  0  0  0
 23 28  1  0  0  0  0
 24 25  1  1  0  0  0
 24 26  1  0  0  0  0
 26 27  1  0  0  0  0
 26 32  1  6  0  0  0
 27 28  1  0  0  0  0
 27 29  1  6  0  0  0
 29 30  1  0  0  0  0
 31 32  1  6  0  0  0
 31 33  1  0  0  0  0
 31 39  1  0  0  0  0
 33 36  1  0  0  0  0
 33 41  1  6  0  0  0
 34 40  1  0  0  0  0
 35 48  1  0  0  0  0
 36 37  1  0  0  0  0
 36 45  1  1  0  0  0
 37 38  1  0  0  0  0
 37 44  1  6  0  0  0
 38 39  1  0  0  0  0
 38 40  1  6  0  0  0
 43 47  1  0  0  0  0
 46 48  1  0  0  0  0
 48 43  1  1  0  0  0
M  END
>  <CHROM.1>
-99.67333511,-82.11218877,-74.69632283,-74.05451947,88.30392848,71.54371806
-176.33863920,-63.90509616,-162.49854176,-63.73876156,175.52314536,-65.28636531
122.81489267,28.85057213,9.21637478,5.66829980,2.16000816,0.25964087,1.00154764

>  <Name>
ligand

>  <RI>
0

>  <Rbt.Current_Directory>
/home/itssahil/PROJECTS/Mol_Feturizer/New_Systems/rnas/4PDQ

>  <Rbt.Executable>
rbdock ($Id: //depot/dev/client3/rdock/2013.1/src/exe/rbdock.cxx#4 $)

>  <Rbt.Library>
libRbt.so (2013.1, Build901 2013/11/27)

>  <Rbt.Parameter_File>
/export/apps/rDock/src/rDock_2013.1_src/data/scripts/dock_solv.prm

>  <Rbt.Receptor>
prm/pocket_docking_5.prm

>  <SCORE>
-6.80774

>  <SCORE.INTER>
0.433446

>  <SCORE.INTER.CONST>
1

>  <SCORE.INTER.POLAR>
0

>  <SCORE.INTER.ROT>
13

>  <SCORE.INTER.SOLV>
7.57936

>  <SCORE.INTER.VDW>
-14.5042

>  <SCORE.INTER.norm>
0.00884584

>  <SCORE.INTRA>
-7.25337

>  <SCORE.INTRA.DIHEDRAL>
-19.5472

>  <SCORE.INTRA.DIHEDRAL.0>
34.5115

>  <SCORE.INTRA.POLAR>
0

>  <SCORE.INTRA.POLAR.0>
0

>  <SCORE.INTRA.REPUL>
0

>  <SCORE.INTRA.REPUL.0>
0

>  <SCORE.INTRA.SOLV>
4.66764

>  <SCORE.INTRA.SOLV.lig_0>
-122.812

>  <SCORE.INTRA.VDW>
0.186424

>  <SCORE.INTRA.VDW.0>
-7.46208

>  <SCORE.INTRA.norm>
-0.148028

>  <SCORE.RESTR>
0.0121834

>  <SCORE.RESTR.CAVITY>
0.0121834

>  <SCORE.RESTR.norm>
0.000248641

>  <SCORE.SYSTEM>
0

>  <SCORE.SYSTEM.CONST>
0

>  <SCORE.SYSTEM.DIHEDRAL>
0

>  <SCORE.SYSTEM.SOLV>
0

>  <SCORE.SYSTEM.norm>
0

>  <SCORE.heavy>
49

>  <SCORE.norm>
-0.138933

>  <RMSD>
5.408

$$$$
ligand
 OpenBabel11021811513D
libRbt.so/2013.1/901 2013/11/27
 49 52  0  0  0  0  0  0  0  0999 V2000
   29.1386    5.0308    0.5576 C   0  0  2  0  0  0  0  0  0  0  0  0
   28.7510    6.0757   -0.2850 O   0  0  0  0  0  0  0  0  0  0  0  0
   27.8758    4.4441    1.2913 C   0  0  2  0  0  0  0  0  0  0  0  0
   26.8823    3.9469    0.2530 N   0  0  0  0  0  0  0  0  0  0  0  0
   35.0297    8.8331   -0.8437 O   0  0  0  0  0  0  0  0  0  0  0  0
   27.2424    5.5135    2.2117 C   0  0  2  0  0  0  0  0  0  0  0  0
   38.1682   11.6376   -1.1969 N   0  0  0  0  0  0  0  0  0  0  0  0
   28.2702    6.0145    3.2385 C   0  0  2  0  0  0  0  0  0  0  0  0
   29.5611    6.6127    2.5346 C   0  0  2  0  0  0  0  0  0  0  0  0
   30.1205    5.5414    1.5967 O   0  0  0  0  0  0  0  0  0  0  0  0
   30.6205    7.0668    3.5801 C   0  0  0  0  0  0  0  0  0  0  0  0
   30.1588    8.0779    4.4623 N   0  0  0  0  0  0  0  0  0  0  0  0
   32.2456    8.3236   -1.5248 C   0  0  2  0  0  0  0  0  0  0  0  0
   33.1794    9.0795   -2.4101 N   0  0  0  0  0  0  0  0  0  0  0  0
   31.7923    7.0121   -2.3316 C   0  0  0  0  0  0  0  0  0  0  0  0
   30.8186    6.1384   -1.4559 C   0  0  2  0  0  0  0  0  0  0  0  0
   30.3800    4.9435   -2.1920 N   0  0  0  0  0  0  0  0  0  0  0  0
   29.5684    6.9547   -1.0717 C   0  0  2  0  0  0  0  0  0  0  0  0
   29.9811    8.2591   -0.2772 C   0  0  2  0  0  0  0  0  0  0  0  0
   28.7236    8.9607    0.0482 O   0  0  0  0  0  0  0  0  0  0  0  0
   30.9242    9.1669   -1.2195 C   0  0  1  0  0  0  0  0  0  0  0  0
   31.2696   10.3121   -0.5062 O   0  0  0  0  0  0  0  0  0  0  0  0
   27.8826    8.6560    0.9769 C   0  0  1  0  0  0  0  0  0  0  0  0
   27.4362    9.8310    1.8959 C   0  0  2  0  0  0  0  0  0  0  0  0
   28.3009    9.8800    2.9868 O   0  0  0  0  0  0  0  0  0  0  0  0
   26.1092    9.3193    2.2770 C   0  0  1  0  0  0  0  0  0  0  0  0
   25.4722    8.6408    1.0251 C   0  0  2  0  0  0  0  0  0  0  0  0
   26.6365    8.0480    0.5042 O   0  0  0  0  0  0  0  0  0  0  0  0
   24.6320    9.5047    0.0834 C   0  0  0  0  0  0  0  0  0  0  0  0
   24.1611    8.6401   -0.9332 O   0  0  0  0  0  0  0  0  0  0  0  0
   25.2439    7.9429    4.1155 C   0  0  2  0  0  0  0  0  0  0  0  0
   26.3332    8.3595    3.4060 O   0  0  0  0  0  0  0  0  0  0  0  0
   24.5318    9.0851    4.7783 C   0  0  1  0  0  0  0  0  0  0  0  0
   25.6229    4.0967    6.4694 N   0  0  0  0  0  0  0  0  0  0  0  0
   34.6604   10.4763   -4.0929 O   0  0  0  0  0  0  0  0  0  0  0  0
   23.3185    8.5278    5.6193 C   0  0  2  0  0  0  0  0  0  0  0  0
   23.7333    7.4639    6.6940 C   0  0  1  0  0  0  0  0  0  0  0  0
   24.4071    6.3717    6.0317 C   0  0  1  0  0  0  0  0  0  0  0  0
   25.5792    6.8816    5.2148 O   0  0  0  0  0  0  0  0  0  0  0  0
   24.8861    5.2859    7.0922 C   0  0  0  0  0  0  0  0  0  0  0  0
   25.4055    9.7519    5.6606 N   0  0  0  0  0  0  0  0  0  0  0  0
   26.3539    5.0520    2.7629 O   0  0  0  0  0  0  0  0  0  0  0  0
   35.9411   11.1539   -2.3435 C   0  0  0  0  0  0  0  0  0  0  0  0
   24.4622    7.9588    7.4298 O   0  0  0  0  0  0  0  0  0  0  0  0
   22.5930    8.0032    4.8970 O   0  0  0  0  0  0  0  0  0  0  0  0
   34.5837    9.2629   -1.9170 C   0  0  0  0  0  0  0  0  0  0  0  0
   37.2232   10.8722   -1.9277 C   0  0  0  0  0  0  0  0  0  0  0  0
   35.4718   10.0859   -2.9872 C   0  0  1  0  0  0  0  0  0  0  0  0
   28.6754    4.9534    4.0675 F   0  0  0  0  0  0  0  0  0  0  0  0
  1  2  1  6  0  0  0
  1 10  1  0  0  0  0
  1  3  1  0  0  0  0
  3  4  1  6  0  0  0
  3  6  1  0  0  0  0
  5 46  2  0  0  0  0
  6 42  1  1  0  0  0
  6  8  1  0  0  0  0
  7 47  1  0  0  0  0
  8  9  1  0  0  0  0
  8 49  1  1  0  0  0
  9 10  1  0  0  0  0
  9 11  1  1  0  0  0
 11 12  1  0  0  0  0
 13 14  1  6  0  0  0
 13 15  1  0  0  0  0
 13 21  1  0  0  0  0
 14 46  1  0  0  0  0
 15 16  1  0  0  0  0
 16 17  1  6  0  0  0
 16 18  1  0  0  0  0
 18  2  1  1  0  0  0
 18 19  1  0  0  0  0
 19 20  1  6  0  0  0
 19 21  1  0  0  0  0
 21 22  1  1  0  0  0
 23 20  1  6  0  0  0
 23 24  1  0  0  0  0
 23 28  1  0  0  0  0
 24 25  1  1  0  0  0
 24 26  1  0  0  0  0
 26 27  1  0  0  0  0
 26 32  1  1  0  0  0
 27 28  1  0  0  0  0
 27 29  1  6  0  0  0
 29 30  1  0  0  0  0
 31 32  1  1  0  0  0
 31 33  1  0  0  0  0
 31 39  1  0  0  0  0
 33 36  1  0  0  0  0
 33 41  1  1  0  0  0
 34 40  1  0  0  0  0
 35 48  1  0  0  0  0
 36 37  1  0  0  0  0
 36 45  1  6  0  0  0
 37 38  1  0  0  0  0
 37 44  1  1  0  0  0
 38 39  1  0  0  0  0
 38 40  1  1  0  0  0
 43 47  1  0  0  0  0
 46 48  1  0  0  0  0
 48 43  1  1  0  0  0
M  END
>  <CHROM.1>
175.24711417,30.42891761,-60.47962343,-117.76676878,77.02329031,130.98182858
167.41754453,-178.76254801,-60.63930486,-179.49532504,-179.25907036,-143.01555222
-178.10433550,28.76056038,7.78862110,1.53970886,0.02997360,-0.65653134,-2.76648688

>  <Name>
ligand

>  <RI>
0

>  <Rbt.Current_Directory>
/home/itssahil/PROJECTS/Mol_Feturizer/New_Systems/rnas/4PDQ

>  <Rbt.Executable>
rbdock ($Id: //depot/dev/client3/rdock/2013.1/src/exe/rbdock.cxx#4 $)

>  <Rbt.Library>
libRbt.so (2013.1, Build901 2013/11/27)

>  <Rbt.Parameter_File>
/export/apps/rDock/src/rDock_2013.1_src/data/scripts/dock_solv.prm

>  <Rbt.Receptor>
prm/pocket_docking_6.prm

>  <SCORE>
-9.18554

>  <SCORE.INTER>
-1.86021

>  <SCORE.INTER.CONST>
1

>  <SCORE.INTER.POLAR>
0

>  <SCORE.INTER.ROT>
13

>  <SCORE.INTER.SOLV>
9.08962

>  <SCORE.INTER.VDW>
-16.5367

>  <SCORE.INTER.norm>
-0.0379635

>  <SCORE.INTRA>
-7.32533

>  <SCORE.INTRA.DIHEDRAL>
-15.0033

>  <SCORE.INTRA.DIHEDRAL.0>
34.5115

>  <SCORE.INTRA.POLAR>
0

>  <SCORE.INTRA.POLAR.0>
0

>  <SCORE.INTRA.REPUL>
0.221854

>  <SCORE.INTRA.REPUL.0>
0

>  <SCORE.INTRA.SOLV>
0.658818

>  <SCORE.INTRA.SOLV.lig_0>
-122.812

>  <SCORE.INTRA.VDW>
-1.26235

>  <SCORE.INTRA.VDW.0>
-7.46208

>  <SCORE.INTRA.norm>
-0.149497

>  <SCORE.RESTR>
0

>  <SCORE.RESTR.CAVITY>
0

>  <SCORE.RESTR.norm>
0

>  <SCORE.SYSTEM>
0

>  <SCORE.SYSTEM.CONST>
0

>  <SCORE.SYSTEM.DIHEDRAL>
0

>  <SCORE.SYSTEM.SOLV>
0

>  <SCORE.SYSTEM.norm>
0

>  <SCORE.heavy>
49

>  <SCORE.norm>
-0.18746

>  <RMSD>
5.462

$$$$
ligand
 OpenBabel11021811513D
libRbt.so/2013.1/901 2013/11/27
 49 52  0  0  0  0  0  0  0  0999 V2000
   29.2922    6.7514    2.6405 C   0  0  2  0  0  0  0  0  0  0  0  0
   30.5825    7.2452    2.8482 O   0  0  0  0  0  0  0  0  0  0  0  0
   28.4495    7.7966    1.8190 C   0  0  2  0  0  0  0  0  0  0  0  0
   29.1381    8.0564    0.4883 N   0  0  0  0  0  0  0  0  0  0  0  0
   37.3662    7.2616    1.7432 O   0  0  0  0  0  0  0  0  0  0  0  0
   28.2746    9.1028    2.6283 C   0  0  2  0  0  0  0  0  0  0  0  0
   40.5139    8.4638   -1.8672 N   0  0  0  0  0  0  0  0  0  0  0  0
   27.5954    8.8121    3.9759 C   0  0  2  0  0  0  0  0  0  0  0  0
   28.4168    7.7587    4.8333 C   0  0  2  0  0  0  0  0  0  0  0  0
   28.6107    6.5074    3.9750 O   0  0  0  0  0  0  0  0  0  0  0  0
   27.6949    7.4276    6.1716 C   0  0  0  0  0  0  0  0  0  0  0  0
   27.3321    8.5734    6.9262 N   0  0  0  0  0  0  0  0  0  0  0  0
   34.5428    6.9467    1.1077 C   0  0  2  0  0  0  0  0  0  0  0  0
   35.6188    6.9501    0.0736 N   0  0  0  0  0  0  0  0  0  0  0  0
   33.3258    6.0835    0.5159 C   0  0  0  0  0  0  0  0  0  0  0  0
   32.1492    6.0070    1.5589 C   0  0  2  0  0  0  0  0  0  0  0  0
   31.0195    5.2353    1.0202 N   0  0  0  0  0  0  0  0  0  0  0  0
   31.6465    7.4236    1.9017 C   0  0  2  0  0  0  0  0  0  0  0  0
   32.8249    8.3036    2.4847 C   0  0  2  0  0  0  0  0  0  0  0  0
   32.2436    9.6269    2.7854 O   0  0  0  0  0  0  0  0  0  0  0  0
   33.9875    8.4204    1.3729 C   0  0  1  0  0  0  0  0  0  0  0  0
   35.0104    9.2040    1.9015 O   0  0  0  0  0  0  0  0  0  0  0  0
   32.2223   10.2238    3.9282 C   0  0  1  0  0  0  0  0  0  0  0  0
   30.8110   10.6037    4.4654 C   0  0  2  0  0  0  0  0  0  0  0  0
   30.5120   11.8907    4.0246 O   0  0  0  0  0  0  0  0  0  0  0  0
   31.1111   10.5790    5.9066 C   0  0  1  0  0  0  0  0  0  0  0  0
   32.0725    9.3818    6.1824 C   0  0  2  0  0  0  0  0  0  0  0  0
   32.8593    9.4851    5.0210 O   0  0  0  0  0  0  0  0  0  0  0  0
   31.4568    8.0196    6.5051 C   0  0  0  0  0  0  0  0  0  0  0  0
   32.5407    7.1295    6.6936 O   0  0  0  0  0  0  0  0  0  0  0  0
   30.9149   12.8807    6.7354 C   0  0  2  0  0  0  0  0  0  0  0  0
   31.7276   11.9052    6.2340 O   0  0  0  0  0  0  0  0  0  0  0  0
   30.7102   12.7393    8.2150 C   0  0  1  0  0  0  0  0  0  0  0  0
   26.2014   15.0695    6.1750 N   0  0  0  0  0  0  0  0  0  0  0  0
   37.6744    6.1114   -1.6233 O   0  0  0  0  0  0  0  0  0  0  0  0
   29.7238   13.8643    8.7166 C   0  0  2  0  0  0  0  0  0  0  0  0
   28.3371   13.8577    7.9846 C   0  0  1  0  0  0  0  0  0  0  0  0
   28.5593   14.0047    6.5652 C   0  0  1  0  0  0  0  0  0  0  0  0
   29.5060   12.9338    6.0574 O   0  0  0  0  0  0  0  0  0  0  0  0
   27.1779   13.9593    5.7761 C   0  0  0  0  0  0  0  0  0  0  0  0
   30.1296   11.4881    8.5046 N   0  0  0  0  0  0  0  0  0  0  0  0
   27.6265    9.8288    2.0290 O   0  0  0  0  0  0  0  0  0  0  0  0
   38.0527    8.3133   -1.2129 C   0  0  0  0  0  0  0  0  0  0  0  0
   27.8307   12.8461    8.1787 O   0  0  0  0  0  0  0  0  0  0  0  0
   30.2068   14.8859    8.5016 O   0  0  0  0  0  0  0  0  0  0  0  0
   37.0267    7.1268    0.5591 C   0  0  0  0  0  0  0  0  0  0  0  0
   39.1132    8.4103   -2.0859 C   0  0  0  0  0  0  0  0  0  0  0  0
   38.0732    7.0959   -0.6719 C   0  0  1  0  0  0  0  0  0  0  0  0
   26.3068    8.2920    3.7605 F   0  0  0  0  0  0  0  0  0  0  0  0
  1  2  1  1  0  0  0
  1 10  1  0  0  0  0
  1  3  1  0  0  0  0
  3  4  1  6  0  0  0
  3  6  1  0  0  0  0
  5 46  2  0  0  0  0
  6 42  1  6  0  0  0
  6  8  1  0  0  0  0
  7 47  1  0  0  0  0
  8  9  1  0  0  0  0
  8 49  1  6  0  0  0
  9 10  1  0  0  0  0
  9 11  1  1  0  0  0
 11 12  1  0  0  0  0
 13 14  1  6  0  0  0
 13 15  1  0  0  0  0
 13 21  1  0  0  0  0
 14 46  1  0  0  0  0
 15 16  1  0  0  0  0
 16 17  1  6  0  0  0
 16 18  1  0  0  0  0
 18  2  1  1  0  0  0
 18 19  1  0  0  0  0
 19 20  1  6  0  0  0
 19 21  1  0  0  0  0
 21 22  1  1  0  0  0
 23 20  1  6  0  0  0
 23 24  1  0  0  0  0
 23 28  1  0  0  0  0
 24 25  1  6  0  0  0
 24 26  1  0  0  0  0
 26 27  1  0  0  0  0
 26 32  1  6  0  0  0
 27 28  1  0  0  0  0
 27 29  1  6  0  0  0
 29 30  1  0  0  0  0
 31 32  1  6  0  0  0
 31 33  1  0  0  0  0
 31 39  1  0  0  0  0
 33 36  1  0  0  0  0
 33 41  1  6  0  0  0
 34 40  1  0  0  0  0
 35 48  1  0  0  0  0
 36 37  1  0  0  0  0
 36 45  1  6  0  0  0
 37 38  1  0  0  0  0
 37 44  1  6  0  0  0
 38 39  1  0  0  0  0
 38 40  1  6  0  0  0
 43 47  1  0  0  0  0
 46 48  1  0  0  0  0
 48 43  1  6  0  0  0
M  END
>  <CHROM.1>
-70.61471683,-72.08531529,-51.61798941,-153.35557491,121.71730938,-122.32750939
96.35559213,179.40151717,82.98785455,60.49818173,-69.42403177,-72.36970990
140.09886604,31.48369968,9.41275407,3.73084123,0.77285052,-0.27946163,-2.45846129

>  <Name>
ligand

>  <RI>
0

>  <Rbt.Current_Directory>
/home/itssahil/PROJECTS/Mol_Feturizer/New_Systems/rnas/4PDQ

>  <Rbt.Executable>
rbdock ($Id: //depot/dev/client3/rdock/2013.1/src/exe/rbdock.cxx#4 $)

>  <Rbt.Library>
libRbt.so (2013.1, Build901 2013/11/27)

>  <Rbt.Parameter_File>
/export/apps/rDock/src/rDock_2013.1_src/data/scripts/dock_solv.prm

>  <Rbt.Receptor>
prm/pocket_docking_8.prm

>  <SCORE>
-5.10746

>  <SCORE.INTER>
-3.53371

>  <SCORE.INTER.CONST>
1

>  <SCORE.INTER.POLAR>
0

>  <SCORE.INTER.ROT>
13

>  <SCORE.INTER.SOLV>
13.2746

>  <SCORE.INTER.VDW>
-19.0473

>  <SCORE.INTER.norm>
-0.0721165

>  <SCORE.INTRA>
-1.57375

>  <SCORE.INTRA.DIHEDRAL>
-8.9994

>  <SCORE.INTRA.DIHEDRAL.0>
34.5115

>  <SCORE.INTRA.POLAR>
0

>  <SCORE.INTRA.POLAR.0>
0

>  <SCORE.INTRA.REPUL>
0.0225363

>  <SCORE.INTRA.REPUL.0>
0

>  <SCORE.INTRA.SOLV>
3.68664

>  <SCORE.INTRA.SOLV.lig_0>
-122.812

>  <SCORE.INTRA.VDW>
0.969953

>  <SCORE.INTRA.VDW.0>
-7.46208

>  <SCORE.INTRA.norm>
-0.0321173

>  <SCORE.RESTR>
0

>  <SCORE.RESTR.CAVITY>
0

>  <SCORE.RESTR.norm>
0

>  <SCORE.SYSTEM>
0

>  <SCORE.SYSTEM.CONST>
0

>  <SCORE.SYSTEM.DIHEDRAL>
0

>  <SCORE.SYSTEM.SOLV>
0

>  <SCORE.SYSTEM.norm>
0

>  <SCORE.heavy>
49

>  <SCORE.norm>
-0.104234

>  <RMSD>
5.644

$$$$
ligand
 OpenBabel11021811513D
libRbt.so/2013.1/901 2013/11/27
 49 52  0  0  0  0  0  0  0  0999 V2000
   31.4146    8.7345    5.4243 C   0  0  2  0  0  0  0  0  0  0  0  0
   31.0889    9.3857    4.2319 O   0  0  0  0  0  0  0  0  0  0  0  0
   31.1893    7.1853    5.2618 C   0  0  2  0  0  0  0  0  0  0  0  0
   32.0573    6.6721    4.1236 N   0  0  0  0  0  0  0  0  0  0  0  0
   34.4997    8.9822   -0.3816 O   0  0  0  0  0  0  0  0  0  0  0  0
   29.6936    6.8817    5.0120 C   0  0  2  0  0  0  0  0  0  0  0  0
   38.8958   11.9325   -2.4960 N   0  0  0  0  0  0  0  0  0  0  0  0
   28.8357    7.4268    6.1645 C   0  0  2  0  0  0  0  0  0  0  0  0
   29.0379    8.9890    6.3605 C   0  0  2  0  0  0  0  0  0  0  0  0
   30.5340    9.2461    6.5502 O   0  0  0  0  0  0  0  0  0  0  0  0
   28.2090    9.5236    7.5641 C   0  0  0  0  0  0  0  0  0  0  0  0
   28.3832   10.9105    7.8094 N   0  0  0  0  0  0  0  0  0  0  0  0
   33.0952   11.2146    0.8507 C   0  0  2  0  0  0  0  0  0  0  0  0
   34.0307   11.3721   -0.3013 N   0  0  0  0  0  0  0  0  0  0  0  0
   33.9442   10.5941    2.0634 C   0  0  0  0  0  0  0  0  0  0  0  0
   33.0343   10.4165    3.3357 C   0  0  2  0  0  0  0  0  0  0  0  0
   33.7960    9.8297    4.4481 N   0  0  0  0  0  0  0  0  0  0  0  0
   31.8482    9.4842    3.0180 C   0  0  2  0  0  0  0  0  0  0  0  0
   30.9915   10.0657    1.8218 C   0  0  2  0  0  0  0  0  0  0  0  0
   29.8860    9.1122    1.6026 O   0  0  0  0  0  0  0  0  0  0  0  0
   31.9294   10.1762    0.5143 C   0  0  1  0  0  0  0  0  0  0  0  0
   31.1562   10.6817   -0.5279 O   0  0  0  0  0  0  0  0  0  0  0  0
   28.8584    8.9277    2.3594 C   0  0  1  0  0  0  0  0  0  0  0  0
   28.0432   10.2059    2.7148 C   0  0  2  0  0  0  0  0  0  0  0  0
   28.5566   10.7317    3.8979 O   0  0  0  0  0  0  0  0  0  0  0  0
   26.7290    9.5761    2.9252 C   0  0  1  0  0  0  0  0  0  0  0  0
   26.5486    8.4578    1.8527 C   0  0  2  0  0  0  0  0  0  0  0  0
   27.8713    7.9795    1.8376 O   0  0  0  0  0  0  0  0  0  0  0  0
   25.9140    8.8359    0.5136 C   0  0  0  0  0  0  0  0  0  0  0  0
   26.7992    9.7546   -0.0990 O   0  0  0  0  0  0  0  0  0  0  0  0
   25.6010    8.4322    4.7806 C   0  0  2  0  0  0  0  0  0  0  0  0
   26.7346    9.0415    4.3254 O   0  0  0  0  0  0  0  0  0  0  0  0
   24.4796    9.4076    4.9857 C   0  0  1  0  0  0  0  0  0  0  0  0
   25.4256    7.0724    9.1425 N   0  0  0  0  0  0  0  0  0  0  0  0
   34.9054   11.0855   -3.1125 O   0  0  0  0  0  0  0  0  0  0  0  0
   23.2220    8.6460    5.5590 C   0  0  2  0  0  0  0  0  0  0  0  0
   23.5077    7.8752    6.8943 C   0  0  1  0  0  0  0  0  0  0  0  0
   24.5823    6.9370    6.6694 C   0  0  1  0  0  0  0  0  0  0  0  0
   25.8049    7.6450    6.1170 O   0  0  0  0  0  0  0  0  0  0  0  0
   24.9365    6.1611    8.0132 C   0  0  0  0  0  0  0  0  0  0  0  0
   24.8597   10.3902    5.9219 N   0  0  0  0  0  0  0  0  0  0  0  0
   29.5500    5.7502    4.9383 O   0  0  0  0  0  0  0  0  0  0  0  0
   36.5969   11.2728   -1.6080 C   0  0  0  0  0  0  0  0  0  0  0  0
   23.8387    8.6363    7.6873 O   0  0  0  0  0  0  0  0  0  0  0  0
   22.8967    7.8591    4.7857 O   0  0  0  0  0  0  0  0  0  0  0  0
   34.6815   10.1258   -0.8229 C   0  0  0  0  0  0  0  0  0  0  0  0
   37.6393   11.2737   -2.5077 C   0  0  0  0  0  0  0  0  0  0  0  0
   35.6514   10.4569   -2.0724 C   0  0  1  0  0  0  0  0  0  0  0  0
   29.1850    6.7858    7.3664 F   0  0  0  0  0  0  0  0  0  0  0  0
  1  2  1  6  0  0  0
  1 10  1  0  0  0  0
  1  3  1  0  0  0  0
  3  4  1  6  0  0  0
  3  6  1  0  0  0  0
  5 46  2  0  0  0  0
  6 42  1  1  0  0  0
  6  8  1  0  0  0  0
  7 47  1  0  0  0  0
  8  9  1  0  0  0  0
  8 49  1  1  0  0  0
  9 10  1  0  0  0  0
  9 11  1  1  0  0  0
 11 12  1  0  0  0  0
 13 14  1  6  0  0  0
 13 15  1  0  0  0  0
 13 21  1  0  0  0  0
 14 46  1  0  0  0  0
 15 16  1  0  0  0  0
 16 17  1  1  0  0  0
 16 18  1  0  0  0  0
 18  2  1  1  0  0  0
 18 19  1  0  0  0  0
 19 20  1  6  0  0  0
 19 21  1  0  0  0  0
 21 22  1  6  0  0  0
 23 20  1  6  0  0  0
 23 24  1  0  0  0  0
 23 28  1  0  0  0  0
 24 25  1  1  0  0  0
 24 26  1  0  0  0  0
 26 27  1  0  0  0  0
 26 32  1  1  0  0  0
 27 28  1  0  0  0  0
 27 29  1  6  0  0  0
 29 30  1  0  0  0  0
 31 32  1  1  0  0  0
 31 33  1  0  0  0  0
 31 39  1  0  0  0  0
 33 36  1  0  0  0  0
 33 41  1  1  0  0  0
 34 40  1  0  0  0  0
 35 48  1  0  0  0  0
 36 37  1  0  0  0  0
 36 45  1  6  0  0  0
 37 38  1  0  0  0  0
 37 44  1  1  0  0  0
 38 39  1  0  0  0  0
 38 40  1  1  0  0  0
 43 47  1  0  0  0  0
 46 48  1  0  0  0  0
 48 43  1  1  0  0  0
M  END
>  <CHROM.1>
-77.61220038,-70.73357056,178.26217300,60.45611426,72.25067784,52.98965986
178.39500728,63.87915987,-69.80031536,-61.75362609,-178.34175070,-77.58542061
120.84373087,29.58425545,9.12482055,3.39297092,-0.66495523,0.04780741,1.86021168

>  <Name>
ligand

>  <RI>
0

>  <Rbt.Current_Directory>
/home/itssahil/PROJECTS/Mol_Feturizer/New_Systems/rnas/4PDQ

>  <Rbt.Executable>
rbdock ($Id: //depot/dev/client3/rdock/2013.1/src/exe/rbdock.cxx#4 $)

>  <Rbt.Library>
libRbt.so (2013.1, Build901 2013/11/27)

>  <Rbt.Parameter_File>
/export/apps/rDock/src/rDock_2013.1_src/data/scripts/dock_solv.prm

>  <Rbt.Receptor>
prm/pocket_docking_5.prm

>  <SCORE>
-9.40633

>  <SCORE.INTER>
3.31823

>  <SCORE.INTER.CONST>
1

>  <SCORE.INTER.POLAR>
0

>  <SCORE.INTER.ROT>
13

>  <SCORE.INTER.SOLV>
12.9793

>  <SCORE.INTER.VDW>
-14.3809

>  <SCORE.INTER.norm>
0.067719

>  <SCORE.INTRA>
-12.7246

>  <SCORE.INTRA.DIHEDRAL>
-29.1025

>  <SCORE.INTRA.DIHEDRAL.0>
34.5115

>  <SCORE.INTRA.POLAR>
0

>  <SCORE.INTRA.POLAR.0>
0

>  <SCORE.INTRA.REPUL>
0.0221329

>  <SCORE.INTRA.REPUL.0>
0

>  <SCORE.INTRA.SOLV>
4.52051

>  <SCORE.INTRA.SOLV.lig_0>
-122.812

>  <SCORE.INTRA.VDW>
-0.544253

>  <SCORE.INTRA.VDW.0>
-7.46208

>  <SCORE.INTRA.norm>
-0.259685

>  <SCORE.RESTR>
0

>  <SCORE.RESTR.CAVITY>
0

>  <SCORE.RESTR.norm>
0

>  <SCORE.SYSTEM>
0

>  <SCORE.SYSTEM.CONST>
0

>  <SCORE.SYSTEM.DIHEDRAL>
0

>  <SCORE.SYSTEM.SOLV>
0

>  <SCORE.SYSTEM.norm>
0

>  <SCORE.heavy>
49

>  <SCORE.norm>
-0.191966

>  <RMSD>
5.689

$$$$
ligand
 OpenBabel11021811513D
libRbt.so/2013.1/901 2013/11/27
 49 52  0  0  0  0  0  0  0  0999 V2000
   29.7219   10.2983    7.4372 C   0  0  2  0  0  0  0  0  0  0  0  0
   29.2765    9.8013    6.2097 O   0  0  0  0  0  0  0  0  0  0  0  0
   28.6903    9.9266    8.5662 C   0  0  2  0  0  0  0  0  0  0  0  0
   28.5430    8.4144    8.6287 N   0  0  0  0  0  0  0  0  0  0  0  0
   35.1066   10.7913    3.0866 O   0  0  0  0  0  0  0  0  0  0  0  0
   27.3310   10.6155    8.3020 C   0  0  2  0  0  0  0  0  0  0  0  0
   37.3277   11.9863   -1.0893 N   0  0  0  0  0  0  0  0  0  0  0  0
   27.5085   12.1399    8.2233 C   0  0  2  0  0  0  0  0  0  0  0  0
   28.5452   12.5539    7.0948 C   0  0  2  0  0  0  0  0  0  0  0  0
   29.8535   11.8091    7.3665 O   0  0  0  0  0  0  0  0  0  0  0  0
   28.7616   14.0945    7.0583 C   0  0  0  0  0  0  0  0  0  0  0  0
   27.5830   14.8325    6.7749 N   0  0  0  0  0  0  0  0  0  0  0  0
   32.1982   10.8670    3.1880 C   0  0  2  0  0  0  0  0  0  0  0  0
   32.9715   10.8172    1.9125 N   0  0  0  0  0  0  0  0  0  0  0  0
   32.1128    9.3637    3.7441 C   0  0  0  0  0  0  0  0  0  0  0  0
   31.3294    9.3273    5.1091 C   0  0  2  0  0  0  0  0  0  0  0  0
   31.2268    7.9520    5.6190 N   0  0  0  0  0  0  0  0  0  0  0  0
   29.9025    9.8800    4.9206 C   0  0  2  0  0  0  0  0  0  0  0  0
   29.9508   11.3618    4.3683 C   0  0  2  0  0  0  0  0  0  0  0  0
   28.5473   11.7983    4.2309 O   0  0  0  0  0  0  0  0  0  0  0  0
   30.7000   11.3614    2.9399 C   0  0  1  0  0  0  0  0  0  0  0  0
   30.7253   12.6713    2.4676 O   0  0  0  0  0  0  0  0  0  0  0  0
   27.5926   11.1671    3.6369 C   0  0  1  0  0  0  0  0  0  0  0  0
   26.2796   11.9760    3.4217 C   0  0  2  0  0  0  0  0  0  0  0  0
   25.4533   11.7609    4.5221 O   0  0  0  0  0  0  0  0  0  0  0  0
   25.7843   11.2755    2.2251 C   0  0  1  0  0  0  0  0  0  0  0  0
   27.0053   10.9571    1.3080 C   0  0  2  0  0  0  0  0  0  0  0  0
   27.9339   10.6367    2.3148 O   0  0  0  0  0  0  0  0  0  0  0  0
   27.4175   11.9976    0.2658 C   0  0  0  0  0  0  0  0  0  0  0  0
   28.4732   11.4177   -0.4771 O   0  0  0  0  0  0  0  0  0  0  0  0
   25.8608    9.0071    3.1589 C   0  0  2  0  0  0  0  0  0  0  0  0
   25.0887   10.0412    2.7140 O   0  0  0  0  0  0  0  0  0  0  0  0
   26.3685    8.1566    2.0319 C   0  0  1  0  0  0  0  0  0  0  0  0
   24.6027    6.8588    6.9642 N   0  0  0  0  0  0  0  0  0  0  0  0
   34.4920    9.7533   -0.2427 O   0  0  0  0  0  0  0  0  0  0  0  0
   27.2072    6.9559    2.6193 C   0  0  2  0  0  0  0  0  0  0  0  0
   26.4095    6.0694    3.6373 C   0  0  1  0  0  0  0  0  0  0  0  0
   25.9403    6.9071    4.7161 C   0  0  1  0  0  0  0  0  0  0  0  0
   25.1301    8.0709    4.1771 O   0  0  0  0  0  0  0  0  0  0  0  0
   25.0856    6.0549    5.7536 C   0  0  0  0  0  0  0  0  0  0  0  0
   25.2858    7.6198    1.3066 N   0  0  0  0  0  0  0  0  0  0  0  0
   26.6133   10.3636    9.1550 O   0  0  0  0  0  0  0  0  0  0  0  0
   35.0407   11.9393    0.0402 C   0  0  0  0  0  0  0  0  0  0  0  0
   25.5034    5.6211    3.0937 O   0  0  0  0  0  0  0  0  0  0  0  0
   28.1042    7.3922    3.1922 O   0  0  0  0  0  0  0  0  0  0  0  0
   34.4665   10.7864    2.0255 C   0  0  0  0  0  0  0  0  0  0  0  0
   35.9113   12.0304   -1.0228 C   0  0  0  0  0  0  0  0  0  0  0  0
   35.1576   10.7207    0.5662 C   0  0  1  0  0  0  0  0  0  0  0  0
   27.9806   12.6313    9.4534 F   0  0  0  0  0  0  0  0  0  0  0  0
  1  2  1  6  0  0  0
  1 10  1  0  0  0  0
  1  3  1  0  0  0  0
  3  4  1  6  0  0  0
  3  6  1  0  0  0  0
  5 46  2  0  0  0  0
  6 42  1  1  0  0  0
  6  8  1  0  0  0  0
  7 47  1  0  0  0  0
  8  9  1  0  0  0  0
  8 49  1  1  0  0  0
  9 10  1  0  0  0  0
  9 11  1  1  0  0  0
 11 12  1  0  0  0  0
 13 14  1  6  0  0  0
 13 15  1  0  0  0  0
 13 21  1  0  0  0  0
 14 46  1  0  0  0  0
 15 16  1  0  0  0  0
 16 17  1  6  0  0  0
 16 18  1  0  0  0  0
 18  2  1  1  0  0  0
 18 19  1  0  0  0  0
 19 20  1  6  0  0  0
 19 21  1  0  0  0  0
 21 22  1  1  0  0  0
 23 20  1  6  0  0  0
 23 24  1  0  0  0  0
 23 28  1  0  0  0  0
 24 25  1  1  0  0  0
 24 26  1  0  0  0  0
 26 27  1  0  0  0  0
 26 32  1  1  0  0  0
 27 28  1  0  0  0  0
 27 29  1  1  0  0  0
 29 30  1  0  0  0  0
 31 32  1  6  0  0  0
 31 33  1  0  0  0  0
 31 39  1  0  0  0  0
 33 36  1  0  0  0  0
 33 41  1  1  0  0  0
 34 40  1  0  0  0  0
 35 48  1  0  0  0  0
 36 37  1  0  0  0  0
 36 45  1  1  0  0  0
 37 38  1  0  0  0  0
 37 44  1  6  0  0  0
 38 39  1  0  0  0  0
 38 40  1  1  0  0  0
 43 47  1  0  0  0  0
 46 48  1  0  0  0  0
 48 43  1  6  0  0  0
M  END
>  <CHROM.1>
-178.75720475,53.13405234,-61.01279568,-81.58879060,-50.35420449,-169.34437038
-74.47643657,-175.93387498,-82.20283363,177.38886781,-64.67001503,-76.45367472
133.70196926,29.03825834,10.23758122,4.03625210,-2.71657445,-0.43830241,-1.95377878

>  <Name>
ligand

>  <RI>
0

>  <Rbt.Current_Directory>
/home/itssahil/PROJECTS/Mol_Feturizer/New_Systems/rnas/4PDQ

>  <Rbt.Executable>
rbdock ($Id: //depot/dev/client3/rdock/2013.1/src/exe/rbdock.cxx#4 $)

>  <Rbt.Library>
libRbt.so (2013.1, Build901 2013/11/27)

>  <Rbt.Parameter_File>
/export/apps/rDock/src/rDock_2013.1_src/data/scripts/dock_solv.prm

>  <Rbt.Receptor>
prm/pocket_docking_4.prm

>  <SCORE>
-8.64123

>  <SCORE.INTER>
2.68621

>  <SCORE.INTER.CONST>
1

>  <SCORE.INTER.POLAR>
0

>  <SCORE.INTER.ROT>
13

>  <SCORE.INTER.SOLV>
13.2927

>  <SCORE.INTER.VDW>
-14.9068

>  <SCORE.INTER.norm>
0.0548205

>  <SCORE.INTRA>
-11.3274

>  <SCORE.INTRA.DIHEDRAL>
-27.6206

>  <SCORE.INTRA.DIHEDRAL.0>
34.5115

>  <SCORE.INTRA.POLAR>
0

>  <SCORE.INTRA.POLAR.0>
0

>  <SCORE.INTRA.REPUL>
0

>  <SCORE.INTRA.REPUL.0>
0

>  <SCORE.INTRA.SOLV>
-1.0106

>  <SCORE.INTRA.SOLV.lig_0>
-122.812

>  <SCORE.INTRA.VDW>
2.98817

>  <SCORE.INTRA.VDW.0>
-7.46208

>  <SCORE.INTRA.norm>
-0.231172

>  <SCORE.RESTR>
0

>  <SCORE.RESTR.CAVITY>
0

>  <SCORE.RESTR.norm>
0

>  <SCORE.SYSTEM>
0

>  <SCORE.SYSTEM.CONST>
0

>  <SCORE.SYSTEM.DIHEDRAL>
0

>  <SCORE.SYSTEM.SOLV>
0

>  <SCORE.SYSTEM.norm>
0

>  <SCORE.heavy>
49

>  <SCORE.norm>
-0.176352

>  <RMSD>
6.207

$$$$
ligand
 OpenBabel11021811513D
libRbt.so/2013.1/901 2013/11/27
 49 52  0  0  0  0  0  0  0  0999 V2000
   26.6429    6.2296    5.5522 C   0  0  2  0  0  0  0  0  0  0  0  0
   27.8671    6.8681    5.7656 O   0  0  0  0  0  0  0  0  0  0  0  0
   25.5912    7.2664    5.0080 C   0  0  2  0  0  0  0  0  0  0  0  0
   26.1089    7.8671    3.7105 N   0  0  0  0  0  0  0  0  0  0  0  0
   34.0270    5.2628    3.6893 O   0  0  0  0  0  0  0  0  0  0  0  0
   25.3159    8.3603    6.0660 C   0  0  2  0  0  0  0  0  0  0  0  0
   35.5526    6.2106   -1.1675 N   0  0  0  0  0  0  0  0  0  0  0  0
   24.8133    7.7279    7.3733 C   0  0  2  0  0  0  0  0  0  0  0  0
   25.8486    6.6733    7.9526 C   0  0  2  0  0  0  0  0  0  0  0  0
   26.1304    5.6445    6.8560 O   0  0  0  0  0  0  0  0  0  0  0  0
   25.3085    5.9968    9.2457 C   0  0  0  0  0  0  0  0  0  0  0  0
   25.0899    6.9010   10.3175 N   0  0  0  0  0  0  0  0  0  0  0  0
   31.8265    7.1400    4.0186 C   0  0  2  0  0  0  0  0  0  0  0  0
   32.8892    7.2986    2.9830 N   0  0  0  0  0  0  0  0  0  0  0  0
   30.7439    6.1133    3.4269 C   0  0  0  0  0  0  0  0  0  0  0  0
   29.5920    5.8680    4.4716 C   0  0  2  0  0  0  0  0  0  0  0  0
   28.5828    4.9442    3.9330 N   0  0  0  0  0  0  0  0  0  0  0  0
   28.8932    7.1979    4.8179 C   0  0  2  0  0  0  0  0  0  0  0  0
   29.9352    8.2358    5.4010 C   0  0  2  0  0  0  0  0  0  0  0  0
   29.1718    9.4622    5.7052 O   0  0  0  0  0  0  0  0  0  0  0  0
   31.0673    8.5191    4.2877 C   0  0  1  0  0  0  0  0  0  0  0  0
   31.9690    9.4395    4.8163 O   0  0  0  0  0  0  0  0  0  0  0  0
   28.7573    9.8515    6.8625 C   0  0  1  0  0  0  0  0  0  0  0  0
   29.5615    9.3155    8.0833 C   0  0  2  0  0  0  0  0  0  0  0  0
   28.9685    8.1277    8.5046 O   0  0  0  0  0  0  0  0  0  0  0  0
   29.2958   10.4182    9.0221 C   0  0  1  0  0  0  0  0  0  0  0  0
   29.3338   11.7571    8.2224 C   0  0  2  0  0  0  0  0  0  0  0  0
   28.7129   11.3044    7.0442 O   0  0  0  0  0  0  0  0  0  0  0  0
   30.6744   12.4804    8.0866 C   0  0  0  0  0  0  0  0  0  0  0  0
   30.4088   13.6783    7.3816 O   0  0  0  0  0  0  0  0  0  0  0  0
   27.5537   10.9256   10.6746 C   0  0  2  0  0  0  0  0  0  0  0  0
   27.9536   10.1435    9.6297 O   0  0  0  0  0  0  0  0  0  0  0  0
   26.2436   10.4731   11.2491 C   0  0  1  0  0  0  0  0  0  0  0  0
   26.6958   15.8890   12.0539 N   0  0  0  0  0  0  0  0  0  0  0  0
   36.1785    7.1899    2.3068 O   0  0  0  0  0  0  0  0  0  0  0  0
   25.8184   11.4485   12.4143 C   0  0  2  0  0  0  0  0  0  0  0  0
   25.7156   12.9496   11.9726 C   0  0  1  0  0  0  0  0  0  0  0  0
   26.9893   13.3643   11.4330 C   0  0  1  0  0  0  0  0  0  0  0  0
   27.4215   12.4411   10.3097 O   0  0  0  0  0  0  0  0  0  0  0  0
   26.9182   14.8727   10.9302 C   0  0  0  0  0  0  0  0  0  0  0  0
   25.2423   10.5134   10.2580 N   0  0  0  0  0  0  0  0  0  0  0  0
   24.5207    9.0761    5.6640 O   0  0  0  0  0  0  0  0  0  0  0  0
   35.3413    5.3719    1.2325 C   0  0  0  0  0  0  0  0  0  0  0  0
   24.9192   13.0305   11.1498 O   0  0  0  0  0  0  0  0  0  0  0  0
   26.6235   11.3992   13.2344 O   0  0  0  0  0  0  0  0  0  0  0  0
   33.9594    6.2489    2.9419 C   0  0  0  0  0  0  0  0  0  0  0  0
   35.9869    5.6022    0.0383 C   0  0  0  0  0  0  0  0  0  0  0  0
   35.0243    6.5516    1.7647 C   0  0  1  0  0  0  0  0  0  0  0  0
   23.5937    7.0655    7.1470 F   0  0  0  0  0  0  0  0  0  0  0  0
  1  2  1  1  0  0  0
  1 10  1  0  0  0  0
  1  3  1  0  0  0  0
  3  4  1  6  0  0  0
  3  6  1  0  0  0  0
  5 46  2  0  0  0  0
  6 42  1  6  0  0  0
  6  8  1  0  0  0  0
  7 47  1  0  0  0  0
  8  9  1  0  0  0  0
  8 49  1  6  0  0  0
  9 10  1  0  0  0  0
  9 11  1  1  0  0  0
 11 12  1  0  0  0  0
 13 14  1  6  0  0  0
 13 15  1  0  0  0  0
 13 21  1  0  0  0  0
 14 46  1  0  0  0  0
 15 16  1  0  0  0  0
 16 17  1  6  0  0  0
 16 18  1  0  0  0  0
 18  2  1  1  0  0  0
 18 19  1  0  0  0  0
 19 20  1  6  0  0  0
 19 21  1  0  0  0  0
 21 22  1  1  0  0  0
 23 20  1  6  0  0  0
 23 24  1  0  0  0  0
 23 28  1  0  0  0  0
 24 25  1  1  0  0  0
 24 26  1  0  0  0  0
 26 27  1  0  0  0  0
 26 32  1  6  0  0  0
 27 28  1  0  0  0  0
 27 29  1  6  0  0  0
 29 30  1  0  0  0  0
 31 32  1  6  0  0  0
 31 33  1  0  0  0  0
 31 39  1  0  0  0  0
 33 36  1  0  0  0  0
 33 41  1  6  0  0  0
 34 40  1  0  0  0  0
 35 48  1  0  0  0  0
 36 37  1  0  0  0  0
 36 45  1  1  0  0  0
 37 38  1  0  0  0  0
 37 44  1  6  0  0  0
 38 39  1  0  0  0  0
 38 40  1  6  0  0  0
 43 47  1  0  0  0  0
 46 48  1  0  0  0  0
 48 43  1  1  0  0  0
M  END
>  <CHROM.1>
-80.97073343,-74.11729723,-62.28834195,-82.65940051,101.15725615,24.90245993
171.16078548,-177.24263918,-175.61785725,65.65201977,-63.27175450,-74.67997039
-82.27953170,28.77397870,8.92773437,6.83070495,0.86054719,-0.42196512,-2.46584649

>  <Name>
ligand

>  <RI>
0

>  <Rbt.Current_Directory>
/home/itssahil/PROJECTS/Mol_Feturizer/New_Systems/rnas/4PDQ

>  <Rbt.Executable>
rbdock ($Id: //depot/dev/client3/rdock/2013.1/src/exe/rbdock.cxx#4 $)

>  <Rbt.Library>
libRbt.so (2013.1, Build901 2013/11/27)

>  <Rbt.Parameter_File>
/export/apps/rDock/src/rDock_2013.1_src/data/scripts/dock_solv.prm

>  <Rbt.Receptor>
prm/pocket_docking_8.prm

>  <SCORE>
-14.0155

>  <SCORE.INTER>
-7.64569

>  <SCORE.INTER.CONST>
1

>  <SCORE.INTER.POLAR>
0

>  <SCORE.INTER.ROT>
13

>  <SCORE.INTER.SOLV>
14.4933

>  <SCORE.INTER.VDW>
-22.1949

>  <SCORE.INTER.norm>
-0.156034

>  <SCORE.INTRA>
-6.3698

>  <SCORE.INTRA.DIHEDRAL>
-17.698

>  <SCORE.INTRA.DIHEDRAL.0>
34.5115

>  <SCORE.INTRA.POLAR>
0

>  <SCORE.INTRA.POLAR.0>
0

>  <SCORE.INTRA.REPUL>
0

>  <SCORE.INTRA.REPUL.0>
0

>  <SCORE.INTRA.SOLV>
1.28624

>  <SCORE.INTRA.SOLV.lig_0>
-122.812

>  <SCORE.INTRA.VDW>
1.83607

>  <SCORE.INTRA.VDW.0>
-7.46208

>  <SCORE.INTRA.norm>
-0.129996

>  <SCORE.RESTR>
0

>  <SCORE.RESTR.CAVITY>
0

>  <SCORE.RESTR.norm>
0

>  <SCORE.SYSTEM>
0

>  <SCORE.SYSTEM.CONST>
0

>  <SCORE.SYSTEM.DIHEDRAL>
0

>  <SCORE.SYSTEM.SOLV>
0

>  <SCORE.SYSTEM.norm>
0

>  <SCORE.heavy>
49

>  <SCORE.norm>
-0.28603

>  <RMSD>
6.259

$$$$
ligand
 OpenBabel11021811513D
libRbt.so/2013.1/901 2013/11/27
 49 52  0  0  0  0  0  0  0  0999 V2000
   28.7631    4.3953    2.0599 C   0  0  2  0  0  0  0  0  0  0  0  0
   29.0059    5.7515    2.2915 O   0  0  0  0  0  0  0  0  0  0  0  0
   27.2602    4.1890    1.6405 C   0  0  2  0  0  0  0  0  0  0  0  0
   26.9771    4.9999    0.3856 N   0  0  0  0  0  0  0  0  0  0  0  0
   35.4405    5.7897    0.4315 O   0  0  0  0  0  0  0  0  0  0  0  0
   26.3175    4.5932    2.7981 C   0  0  2  0  0  0  0  0  0  0  0  0
   35.6484   10.9086    1.3885 N   0  0  0  0  0  0  0  0  0  0  0  0
   26.6356    3.7752    4.0595 C   0  0  2  0  0  0  0  0  0  0  0  0
   28.1460    3.9567    4.5128 C   0  0  2  0  0  0  0  0  0  0  0  0
   29.0373    3.5978    3.3223 O   0  0  0  0  0  0  0  0  0  0  0  0
   28.4756    3.0826    5.7574 C   0  0  0  0  0  0  0  0  0  0  0  0
   27.6041    3.2982    6.8565 N   0  0  0  0  0  0  0  0  0  0  0  0
   33.2948    6.3899    2.3052 C   0  0  2  0  0  0  0  0  0  0  0  0
   34.6002    7.1132    2.2971 N   0  0  0  0  0  0  0  0  0  0  0  0
   32.3734    7.0716    1.1815 C   0  0  0  0  0  0  0  0  0  0  0  0
   30.9768    6.3493    1.1048 C   0  0  2  0  0  0  0  0  0  0  0  0
   30.1156    6.9779    0.0923 N   0  0  0  0  0  0  0  0  0  0  0  0
   30.2586    6.4297    2.4666 C   0  0  2  0  0  0  0  0  0  0  0  0
   31.1435    5.7690    3.5995 C   0  0  2  0  0  0  0  0  0  0  0  0
   30.3707    5.8895    4.8515 O   0  0  0  0  0  0  0  0  0  0  0  0
   32.5409    6.5680    3.7018 C   0  0  1  0  0  0  0  0  0  0  0  0
   33.3011    5.9772    4.7081 O   0  0  0  0  0  0  0  0  0  0  0  0
   29.9175    6.9736    5.3828 C   0  0  1  0  0  0  0  0  0  0  0  0
   29.3732    6.8375    6.8353 C   0  0  2  0  0  0  0  0  0  0  0  0
   28.0115    6.5538    6.7625 O   0  0  0  0  0  0  0  0  0  0  0  0
   29.6174    8.2162    7.2908 C   0  0  1  0  0  0  0  0  0  0  0  0
   30.9823    8.6883    6.7013 C   0  0  2  0  0  0  0  0  0  0  0  0
   30.8758    8.0801    5.4375 O   0  0  0  0  0  0  0  0  0  0  0  0
   32.2510    8.4231    7.5132 C   0  0  0  0  0  0  0  0  0  0  0  0
   32.3461    7.0179    7.6519 O   0  0  0  0  0  0  0  0  0  0  0  0
   28.2012   10.2152    7.4379 C   0  0  2  0  0  0  0  0  0  0  0  0
   28.4607    9.0349    6.8031 O   0  0  0  0  0  0  0  0  0  0  0  0
   27.0585   10.9555    6.8076 C   0  0  1  0  0  0  0  0  0  0  0  0
   31.7192   12.7025    8.8988 N   0  0  0  0  0  0  0  0  0  0  0  0
   38.0500    6.8540    0.8052 O   0  0  0  0  0  0  0  0  0  0  0  0
   26.8478   12.3284    7.5566 C   0  0  2  0  0  0  0  0  0  0  0  0
   28.1252   13.2377    7.5753 C   0  0  1  0  0  0  0  0  0  0  0  0
   29.2069   12.5081    8.1943 C   0  0  1  0  0  0  0  0  0  0  0  0
   29.4298   11.1822    7.4920 O   0  0  0  0  0  0  0  0  0  0  0  0
   30.5391   13.3789    8.1954 C   0  0  0  0  0  0  0  0  0  0  0  0
   27.3502   11.2346    5.4573 N   0  0  0  0  0  0  0  0  0  0  0  0
   25.2363    4.3963    2.4844 O   0  0  0  0  0  0  0  0  0  0  0  0
   36.7236    8.6958    0.7136 C   0  0  0  0  0  0  0  0  0  0  0  0
   28.4127   13.4793    6.4906 O   0  0  0  0  0  0  0  0  0  0  0  0
   26.5870   12.1015    8.6537 O   0  0  0  0  0  0  0  0  0  0  0  0
   35.6074    6.6850    1.2719 C   0  0  0  0  0  0  0  0  0  0  0  0
   36.0919    9.5728    1.5667 C   0  0  0  0  0  0  0  0  0  0  0  0
   36.9574    7.5666    1.3811 C   0  0  1  0  0  0  0  0  0  0  0  0
   26.4135    2.4088    3.8129 F   0  0  0  0  0  0  0  0  0  0  0  0
  1  2  1  1  0  0  0
  1 10  1  0  0  0  0
  1  3  1  0  0  0  0
  3  4  1  6  0  0  0
  3  6  1  0  0  0  0
  5 46  2  0  0  0  0
  6 42  1  6  0  0  0
  6  8  1  0  0  0  0
  7 47  1  0  0  0  0
  8  9  1  0  0  0  0
  8 49  1  6  0  0  0
  9 10  1  0  0  0  0
  9 11  1  1  0  0  0
 11 12  1  0  0  0  0
 13 14  1  1  0  0  0
 13 15  1  0  0  0  0
 13 21  1  0  0  0  0
 14 46  1  0  0  0  0
 15 16  1  0  0  0  0
 16 17  1  6  0  0  0
 16 18  1  0  0  0  0
 18  2  1  6  0  0  0
 18 19  1  0  0  0  0
 19 20  1  1  0  0  0
 19 21  1  0  0  0  0
 21 22  1  1  0  0  0
 23 20  1  1  0  0  0
 23 24  1  0  0  0  0
 23 28  1  0  0  0  0
 24 25  1  6  0  0  0
 24 26  1  0  0  0  0
 26 27  1  0  0  0  0
 26 32  1  6  0  0  0
 27 28  1  0  0  0  0
 27 29  1  1  0  0  0
 29 30  1  0  0  0  0
 31 32  1  6  0  0  0
 31 33  1  0  0  0  0
 31 39  1  0  0  0  0
 33 36  1  0  0  0  0
 33 41  1  6  0  0  0
 34 40  1  0  0  0  0
 35 48  1  0  0  0  0
 36 37  1  0  0  0  0
 36 45  1  1  0  0  0
 37 38  1  0  0  0  0
 37 44  1  6  0  0  0
 38 39  1  0  0  0  0
 38 40  1  6  0  0  0
 43 47  1  0  0  0  0
 46 48  1  0  0  0  0
 48 43  1  6  0  0  0
M  END
>  <CHROM.1>
-168.19924611,67.22118965,-54.56740417,-82.97658130,-56.64222622,-168.85409259
158.66487961,60.92469581,177.44510817,177.11007215,178.38247119,-155.69224168
-23.33335736,30.35874111,7.56255064,4.44368907,0.87024976,-0.41404449,-2.54109411

>  <Name>
ligand

>  <RI>
0

>  <Rbt.Current_Directory>
/home/itssahil/PROJECTS/Mol_Feturizer/New_Systems/rnas/4PDQ

>  <Rbt.Executable>
rbdock ($Id: //depot/dev/client3/rdock/2013.1/src/exe/rbdock.cxx#4 $)

>  <Rbt.Library>
libRbt.so (2013.1, Build901 2013/11/27)

>  <Rbt.Parameter_File>
/export/apps/rDock/src/rDock_2013.1_src/data/scripts/dock_solv.prm

>  <Rbt.Receptor>
prm/pocket_docking_7.prm

>  <SCORE>
-14.9039

>  <SCORE.INTER>
-1.79989

>  <SCORE.INTER.CONST>
1

>  <SCORE.INTER.POLAR>
0

>  <SCORE.INTER.ROT>
13

>  <SCORE.INTER.SOLV>
20.091

>  <SCORE.INTER.VDW>
-20.1636

>  <SCORE.INTER.norm>
-0.0367325

>  <SCORE.INTRA>
-13.104

>  <SCORE.INTRA.DIHEDRAL>
-27.1252

>  <SCORE.INTRA.DIHEDRAL.0>
34.5115

>  <SCORE.INTRA.POLAR>
0

>  <SCORE.INTRA.POLAR.0>
0

>  <SCORE.INTRA.REPUL>
0

>  <SCORE.INTRA.REPUL.0>
0

>  <SCORE.INTRA.SOLV>
-0.333846

>  <SCORE.INTRA.SOLV.lig_0>
-122.812

>  <SCORE.INTRA.VDW>
0.625484

>  <SCORE.INTRA.VDW.0>
-7.46208

>  <SCORE.INTRA.norm>
-0.267429

>  <SCORE.RESTR>
0

>  <SCORE.RESTR.CAVITY>
0

>  <SCORE.RESTR.norm>
0

>  <SCORE.SYSTEM>
0

>  <SCORE.SYSTEM.CONST>
0

>  <SCORE.SYSTEM.DIHEDRAL>
0

>  <SCORE.SYSTEM.SOLV>
0

>  <SCORE.SYSTEM.norm>
0

>  <SCORE.heavy>
49

>  <SCORE.norm>
-0.304162

>  <RMSD>
6.290

$$$$
ligand
 OpenBabel11021811513D
libRbt.so/2013.1/901 2013/11/27
 49 52  0  0  0  0  0  0  0  0999 V2000
   25.5483    7.0565    0.3692 C   0  0  2  0  0  0  0  0  0  0  0  0
   24.8602    8.1275    0.9449 O   0  0  0  0  0  0  0  0  0  0  0  0
   25.8270    5.9567    1.4600 C   0  0  2  0  0  0  0  0  0  0  0  0
   24.5036    5.4849    2.0417 N   0  0  0  0  0  0  0  0  0  0  0  0
   26.8691   12.4222   -3.8324 O   0  0  0  0  0  0  0  0  0  0  0  0
   26.7605    6.5134    2.5602 C   0  0  2  0  0  0  0  0  0  0  0  0
   23.0870   16.7895   -4.5127 N   0  0  0  0  0  0  0  0  0  0  0  0
   28.0819    7.0016    1.9461 C   0  0  2  0  0  0  0  0  0  0  0  0
   27.8406    8.1124    0.8382 C   0  0  2  0  0  0  0  0  0  0  0  0
   26.8724    7.5370   -0.1971 O   0  0  0  0  0  0  0  0  0  0  0  0
   29.1782    8.5617    0.1819 C   0  0  0  0  0  0  0  0  0  0  0  0
   30.1917    8.8967    1.1172 N   0  0  0  0  0  0  0  0  0  0  0  0
   25.8393   11.7737   -1.1879 C   0  0  2  0  0  0  0  0  0  0  0  0
   25.6580   13.1076   -1.8321 N   0  0  0  0  0  0  0  0  0  0  0  0
   24.6205   10.8487   -1.6728 C   0  0  0  0  0  0  0  0  0  0  0  0
   24.7473    9.4060   -1.0558 C   0  0  2  0  0  0  0  0  0  0  0  0
   23.6250    8.5545   -1.4767 N   0  0  0  0  0  0  0  0  0  0  0  0
   24.7448    9.4818    0.4841 C   0  0  2  0  0  0  0  0  0  0  0  0
   25.9337   10.3914    0.9959 C   0  0  2  0  0  0  0  0  0  0  0  0
   25.8488   10.3931    2.4698 O   0  0  0  0  0  0  0  0  0  0  0  0
   25.7443   11.8793    0.4029 C   0  0  1  0  0  0  0  0  0  0  0  0
   26.7946   12.6653    0.8705 O   0  0  0  0  0  0  0  0  0  0  0  0
   26.7658   10.0303    3.3006 C   0  0  1  0  0  0  0  0  0  0  0  0
   27.9062   11.0629    3.5408 C   0  0  2  0  0  0  0  0  0  0  0  0
   28.9255   10.8023    2.6281 O   0  0  0  0  0  0  0  0  0  0  0  0
   28.2830   10.6596    4.9059 C   0  0  1  0  0  0  0  0  0  0  0  0
   26.9788   10.3075    5.6861 C   0  0  2  0  0  0  0  0  0  0  0  0
   26.2817    9.6798    4.6379 O   0  0  0  0  0  0  0  0  0  0  0  0
   26.2650   11.4277    6.4440 C   0  0  0  0  0  0  0  0  0  0  0  0
   25.7724   12.3194    5.4618 O   0  0  0  0  0  0  0  0  0  0  0  0
   29.6875    8.9106    5.9016 C   0  0  2  0  0  0  0  0  0  0  0  0
   29.2069    9.4884    4.7620 O   0  0  0  0  0  0  0  0  0  0  0  0
   30.7715    7.9136    5.6149 C   0  0  1  0  0  0  0  0  0  0  0  0
   26.7264    7.8587    9.1808 N   0  0  0  0  0  0  0  0  0  0  0  0
   26.6876   14.9824   -4.9732 O   0  0  0  0  0  0  0  0  0  0  0  0
   31.2429    7.2500    6.9667 C   0  0  2  0  0  0  0  0  0  0  0  0
   30.0842    6.5607    7.7672 C   0  0  1  0  0  0  0  0  0  0  0  0
   29.0592    7.5409    8.0394 C   0  0  1  0  0  0  0  0  0  0  0  0
   28.5884    8.1948    6.7541 O   0  0  0  0  0  0  0  0  0  0  0  0
   27.8398    6.8733    8.8143 C   0  0  0  0  0  0  0  0  0  0  0  0
   30.2796    6.8937    4.7756 N   0  0  0  0  0  0  0  0  0  0  0  0
   26.9803    5.6855    3.3169 O   0  0  0  0  0  0  0  0  0  0  0  0
   24.6485   14.8431   -3.9820 C   0  0  0  0  0  0  0  0  0  0  0  0
   29.6387    5.7287    7.1138 O   0  0  0  0  0  0  0  0  0  0  0  0
   31.6659    8.0782    7.6438 O   0  0  0  0  0  0  0  0  0  0  0  0
   26.2512   13.2886   -3.1974 C   0  0  0  0  0  0  0  0  0  0  0  0
   24.3266   16.1578   -4.2348 C   0  0  0  0  0  0  0  0  0  0  0  0
   25.9611   14.7739   -3.7640 C   0  0  1  0  0  0  0  0  0  0  0  0
   28.7582    5.9245    1.3464 F   0  0  0  0  0  0  0  0  0  0  0  0
  1  2  1  1  0  0  0
  1 10  1  0  0  0  0
  1  3  1  0  0  0  0
  3  4  1  1  0  0  0
  3  6  1  0  0  0  0
  5 46  2  0  0  0  0
  6 42  1  1  0  0  0
  6  8  1  0  0  0  0
  7 47  1  0  0  0  0
  8  9  1  0  0  0  0
  8 49  1  6  0  0  0
  9 10  1  0  0  0  0
  9 11  1  6  0  0  0
 11 12  1  0  0  0  0
 13 14  1  6  0  0  0
 13 15  1  0  0  0  0
 13 21  1  0  0  0  0
 14 46  1  0  0  0  0
 15 16  1  0  0  0  0
 16 17  1  1  0  0  0
 16 18  1  0  0  0  0
 18  2  1  1  0  0  0
 18 19  1  0  0  0  0
 19 20  1  1  0  0  0
 19 21  1  0  0  0  0
 21 22  1  1  0  0  0
 23 20  1  6  0  0  0
 23 24  1  0  0  0  0
 23 28  1  0  0  0  0
 24 25  1  6  0  0  0
 24 26  1  0  0  0  0
 26 27  1  0  0  0  0
 26 32  1  6  0  0  0
 27 28  1  0  0  0  0
 27 29  1  6  0  0  0
 29 30  1  0  0  0  0
 31 32  1  6  0  0  0
 31 33  1  0  0  0  0
 31 39  1  0  0  0  0
 33 36  1  0  0  0  0
 33 41  1  6  0  0  0
 34 40  1  0  0  0  0
 35 48  1  0  0  0  0
 36 37  1  0  0  0  0
 36 45  1  1  0  0  0
 37 38  1  0  0  0  0
 37 44  1  6  0  0  0
 38 39  1  0  0  0  0
 38 40  1  6  0  0  0
 43 47  1  0  0  0  0
 46 48  1  0  0  0  0
 48 43  1  6  0  0  0
M  END
>  <CHROM.1>
159.30498849,33.41819140,-49.66026268,-87.46955907,122.54338190,78.09372444
-179.05644588,66.98468984,-170.23161638,178.16773705,-179.21456517,-71.19966381
-8.91956457,27.13914630,9.65794200,2.16442605,2.69627161,-1.21019197,0.08589854

>  <Name>
ligand

>  <RI>
0

>  <Rbt.Current_Directory>
/home/itssahil/PROJECTS/Mol_Feturizer/New_Systems/rnas/4PDQ

>  <Rbt.Executable>
rbdock ($Id: //depot/dev/client3/rdock/2013.1/src/exe/rbdock.cxx#4 $)

>  <Rbt.Library>
libRbt.so (2013.1, Build901 2013/11/27)

>  <Rbt.Parameter_File>
/export/apps/rDock/src/rDock_2013.1_src/data/scripts/dock_solv.prm

>  <Rbt.Receptor>
prm/pocket_docking_5.prm

>  <SCORE>
-14.8466

>  <SCORE.INTER>
-6.75492

>  <SCORE.INTER.CONST>
1

>  <SCORE.INTER.POLAR>
0

>  <SCORE.INTER.ROT>
13

>  <SCORE.INTER.SOLV>
23.6942

>  <SCORE.INTER.VDW>
-24.668

>  <SCORE.INTER.norm>
-0.137855

>  <SCORE.INTRA>
-8.09171

>  <SCORE.INTRA.DIHEDRAL>
-18.0465

>  <SCORE.INTRA.DIHEDRAL.0>
34.5115

>  <SCORE.INTRA.POLAR>
0

>  <SCORE.INTRA.POLAR.0>
0

>  <SCORE.INTRA.REPUL>
0

>  <SCORE.INTRA.REPUL.0>
0

>  <SCORE.INTRA.SOLV>
1.40251

>  <SCORE.INTRA.SOLV.lig_0>
-122.812

>  <SCORE.INTRA.VDW>
0.230277

>  <SCORE.INTRA.VDW.0>
-7.46208

>  <SCORE.INTRA.norm>
-0.165137

>  <SCORE.RESTR>
0

>  <SCORE.RESTR.CAVITY>
0

>  <SCORE.RESTR.norm>
0

>  <SCORE.SYSTEM>
0

>  <SCORE.SYSTEM.CONST>
0

>  <SCORE.SYSTEM.DIHEDRAL>
0

>  <SCORE.SYSTEM.SOLV>
0

>  <SCORE.SYSTEM.norm>
0

>  <SCORE.heavy>
49

>  <SCORE.norm>
-0.302992

>  <RMSD>
6.581

$$$$
ligand
 OpenBabel11021811513D
libRbt.so/2013.1/901 2013/11/27
 49 52  0  0  0  0  0  0  0  0999 V2000
   26.5485    7.3612    6.4642 C   0  0  2  0  0  0  0  0  0  0  0  0
   27.5722    8.3117    6.4918 O   0  0  0  0  0  0  0  0  0  0  0  0
   25.3605    7.8861    5.5753 C   0  0  2  0  0  0  0  0  0  0  0  0
   25.8717    8.1554    4.1686 N   0  0  0  0  0  0  0  0  0  0  0  0
   33.6393    7.7080    3.9503 O   0  0  0  0  0  0  0  0  0  0  0  0
   24.7386    9.1557    6.2023 C   0  0  2  0  0  0  0  0  0  0  0  0
   35.9346   10.5521   -0.0829 N   0  0  0  0  0  0  0  0  0  0  0  0
   24.2479    8.8642    7.6291 C   0  0  2  0  0  0  0  0  0  0  0  0
   25.4201    8.3300    8.5566 C   0  0  2  0  0  0  0  0  0  0  0  0
   26.0383    7.1097    7.8718 O   0  0  0  0  0  0  0  0  0  0  0  0
   24.9043    7.9844    9.9835 C   0  0  0  0  0  0  0  0  0  0  0  0
   25.9285    7.5912   10.8838 N   0  0  0  0  0  0  0  0  0  0  0  0
   31.2543    9.3070    4.4293 C   0  0  2  0  0  0  0  0  0  0  0  0
   32.2001    9.5652    3.3042 N   0  0  0  0  0  0  0  0  0  0  0  0
   30.4626    7.9561    4.0764 C   0  0  0  0  0  0  0  0  0  0  0  0
   29.4542    7.5938    5.2297 C   0  0  2  0  0  0  0  0  0  0  0  0
   28.7078    6.3684    4.9088 N   0  0  0  0  0  0  0  0  0  0  0  0
   28.4404    8.7377    5.4314 C   0  0  2  0  0  0  0  0  0  0  0  0
   29.1897   10.0875    5.7772 C   0  0  2  0  0  0  0  0  0  0  0  0
   28.1396   11.1095    5.9572 O   0  0  0  0  0  0  0  0  0  0  0  0
   30.1666   10.4700    4.5521 C   0  0  1  0  0  0  0  0  0  0  0  0
   30.8100   11.6631    4.8719 O   0  0  0  0  0  0  0  0  0  0  0  0
   28.2009   12.1634    6.6976 C   0  0  1  0  0  0  0  0  0  0  0  0
   28.1826   11.9112    8.2341 C   0  0  2  0  0  0  0  0  0  0  0  0
   26.8578   11.9444    8.6625 O   0  0  0  0  0  0  0  0  0  0  0  0
   28.9222   13.1105    8.6618 C   0  0  1  0  0  0  0  0  0  0  0  0
   30.0681   13.3668    7.6348 C   0  0  2  0  0  0  0  0  0  0  0  0
   29.3718   13.0123    6.4652 O   0  0  0  0  0  0  0  0  0  0  0  0
   31.4236   12.7040    7.8837 C   0  0  0  0  0  0  0  0  0  0  0  0
   31.8820   13.1949    9.1293 O   0  0  0  0  0  0  0  0  0  0  0  0
   27.3051   14.4806    9.8992 C   0  0  2  0  0  0  0  0  0  0  0  0
   27.9253   14.2286    8.7095 O   0  0  0  0  0  0  0  0  0  0  0  0
   25.9112   15.0022    9.7095 C   0  0  1  0  0  0  0  0  0  0  0  0
   27.9091   16.9902   14.4360 N   0  0  0  0  0  0  0  0  0  0  0  0
   33.5088    9.0908    0.7412 O   0  0  0  0  0  0  0  0  0  0  0  0
   25.2749   15.3191   11.1183 C   0  0  2  0  0  0  0  0  0  0  0  0
   26.1110   16.3338   11.9728 C   0  0  1  0  0  0  0  0  0  0  0  0
   27.4435   15.8060   12.1498 C   0  0  1  0  0  0  0  0  0  0  0  0
   28.0781   15.4923   10.8082 O   0  0  0  0  0  0  0  0  0  0  0  0
   28.3429   16.8261   12.9765 C   0  0  0  0  0  0  0  0  0  0  0  0
   25.9406   16.1981    8.9642 N   0  0  0  0  0  0  0  0  0  0  0  0
   23.8542    9.4931    5.5617 O   0  0  0  0  0  0  0  0  0  0  0  0
   34.8151   10.2544    2.1901 C   0  0  0  0  0  0  0  0  0  0  0  0
   26.1770   17.3238   11.3957 O   0  0  0  0  0  0  0  0  0  0  0  0
   25.2291   14.3392   11.7192 O   0  0  0  0  0  0  0  0  0  0  0  0
   33.3870    8.6554    3.1924 C   0  0  0  0  0  0  0  0  0  0  0  0
   35.8701   10.4703    1.3320 C   0  0  0  0  0  0  0  0  0  0  0  0
   34.3052    9.0526    1.9234 C   0  0  1  0  0  0  0  0  0  0  0  0
   23.2354    7.8889    7.5976 F   0  0  0  0  0  0  0  0  0  0  0  0
  1  2  1  1  0  0  0
  1 10  1  0  0  0  0
  1  3  1  0  0  0  0
  3  4  1  6  0  0  0
  3  6  1  0  0  0  0
  5 46  2  0  0  0  0
  6 42  1  6  0  0  0
  6  8  1  0  0  0  0
  7 47  1  0  0  0  0
  8  9  1  0  0  0  0
  8 49  1  6  0  0  0
  9 10  1  0  0  0  0
  9 11  1  1  0  0  0
 11 12  1  0  0  0  0
 13 14  1  6  0  0  0
 13 15  1  0  0  0  0
 13 21  1  0  0  0  0
 14 46  1  0  0  0  0
 15 16  1  0  0  0  0
 16 17  1  6  0  0  0
 16 18  1  0  0  0  0
 18  2  1  1  0  0  0
 18 19  1  0  0  0  0
 19 20  1  6  0  0  0
 19 21  1  0  0  0  0
 21 22  1  1  0  0  0
 23 20  1  6  0  0  0
 23 24  1  0  0  0  0
 23 28  1  0  0  0  0
 24 25  1  1  0  0  0
 24 26  1  0  0  0  0
 26 27  1  0  0  0  0
 26 32  1  6  0  0  0
 27 28  1  0  0  0  0
 27 29  1  1  0  0  0
 29 30  1  0  0  0  0
 31 32  1  6  0  0  0
 31 33  1  0  0  0  0
 31 39  1  0  0  0  0
 33 36  1  0  0  0  0
 33 41  1  6  0  0  0
 34 40  1  0  0  0  0
 35 48  1  0  0  0  0
 36 37  1  0  0  0  0
 36 45  1  1  0  0  0
 37 38  1  0  0  0  0
 37 44  1  6  0  0  0
 38 39  1  0  0  0  0
 38 40  1  6  0  0  0
 43 47  1  0  0  0  0
 46 48  1  0  0  0  0
 48 43  1  1  0  0  0
M  END
>  <CHROM.1>
-68.10952590,-74.58033868,-175.78518187,-71.60880977,151.96651559,-70.13302224
92.90967964,-60.47768918,-148.37994479,67.68568393,61.70205560,-76.79186926
125.32371043,28.54963510,11.15795250,7.07654550,0.93339933,-0.50516699,-2.51879094

>  <Name>
ligand

>  <RI>
0

>  <Rbt.Current_Directory>
/home/itssahil/PROJECTS/Mol_Feturizer/New_Systems/rnas/4PDQ

>  <Rbt.Executable>
rbdock ($Id: //depot/dev/client3/rdock/2013.1/src/exe/rbdock.cxx#4 $)

>  <Rbt.Library>
libRbt.so (2013.1, Build901 2013/11/27)

>  <Rbt.Parameter_File>
/export/apps/rDock/src/rDock_2013.1_src/data/scripts/dock_solv.prm

>  <Rbt.Receptor>
prm/pocket_docking_8.prm

>  <SCORE>
-12.1965

>  <SCORE.INTER>
-5.24944

>  <SCORE.INTER.CONST>
1

>  <SCORE.INTER.POLAR>
0

>  <SCORE.INTER.ROT>
13

>  <SCORE.INTER.SOLV>
14.8599

>  <SCORE.INTER.VDW>
-20.7196

>  <SCORE.INTER.norm>
-0.107131

>  <SCORE.INTRA>
-6.95776

>  <SCORE.INTRA.DIHEDRAL>
-19.209

>  <SCORE.INTRA.DIHEDRAL.0>
34.5115

>  <SCORE.INTRA.POLAR>
0

>  <SCORE.INTRA.POLAR.0>
0

>  <SCORE.INTRA.REPUL>
0

>  <SCORE.INTRA.REPUL.0>
0

>  <SCORE.INTRA.SOLV>
0.616558

>  <SCORE.INTRA.SOLV.lig_0>
-122.812

>  <SCORE.INTRA.VDW>
2.33847

>  <SCORE.INTRA.VDW.0>
-7.46208

>  <SCORE.INTRA.norm>
-0.141995

>  <SCORE.RESTR>
0.0106726

>  <SCORE.RESTR.CAVITY>
0.0106726

>  <SCORE.RESTR.norm>
0.000217809

>  <SCORE.SYSTEM>
0

>  <SCORE.SYSTEM.CONST>
0

>  <SCORE.SYSTEM.DIHEDRAL>
0

>  <SCORE.SYSTEM.SOLV>
0

>  <SCORE.SYSTEM.norm>
0

>  <SCORE.heavy>
49

>  <SCORE.norm>
-0.248909

>  <RMSD>
6.592

$$$$
ligand
 OpenBabel11021811513D
libRbt.so/2013.1/901 2013/11/27
 49 52  0  0  0  0  0  0  0  0999 V2000
   26.0334    6.6973    6.0742 C   0  0  2  0  0  0  0  0  0  0  0  0
   27.3339    6.6581    6.5834 O   0  0  0  0  0  0  0  0  0  0  0  0
   24.9977    6.6226    7.2569 C   0  0  2  0  0  0  0  0  0  0  0  0
   25.2329    7.7920    8.2001 N   0  0  0  0  0  0  0  0  0  0  0  0
   33.0004    5.0511    3.4511 O   0  0  0  0  0  0  0  0  0  0  0  0
   25.1195    5.2690    7.9950 C   0  0  2  0  0  0  0  0  0  0  0  0
   35.2861    9.7888    0.8485 N   0  0  0  0  0  0  0  0  0  0  0  0
   24.8978    4.1034    7.0184 C   0  0  2  0  0  0  0  0  0  0  0  0
   25.9247    4.1463    5.8087 C   0  0  2  0  0  0  0  0  0  0  0  0
   25.8065    5.5191    5.1440 O   0  0  0  0  0  0  0  0  0  0  0  0
   25.6586    2.9958    4.7952 C   0  0  0  0  0  0  0  0  0  0  0  0
   26.5740    2.9634    3.7112 N   0  0  0  0  0  0  0  0  0  0  0  0
   31.4379    6.7864    5.1895 C   0  0  2  0  0  0  0  0  0  0  0  0
   32.6481    7.2468    4.4476 N   0  0  0  0  0  0  0  0  0  0  0  0
   30.2219    6.7729    4.1419 C   0  0  0  0  0  0  0  0  0  0  0  0
   28.9023    6.2727    4.8394 C   0  0  2  0  0  0  0  0  0  0  0  0
   27.7757    6.2750    3.8945 N   0  0  0  0  0  0  0  0  0  0  0  0
   28.5419    7.1929    6.0227 C   0  0  2  0  0  0  0  0  0  0  0  0
   29.7235    7.2321    7.0739 C   0  0  2  0  0  0  0  0  0  0  0  0
   29.2803    8.1263    8.1617 O   0  0  0  0  0  0  0  0  0  0  0  0
   31.0450    7.8093    6.3514 C   0  0  1  0  0  0  0  0  0  0  0  0
   32.0699    7.8433    7.2938 O   0  0  0  0  0  0  0  0  0  0  0  0
   28.7777    9.3075    8.0395 C   0  0  1  0  0  0  0  0  0  0  0  0
   28.7298   10.1592    9.3422 C   0  0  2  0  0  0  0  0  0  0  0  0
   27.5043    9.9314    9.9635 O   0  0  0  0  0  0  0  0  0  0  0  0
   28.7889   11.4976    8.7312 C   0  0  1  0  0  0  0  0  0  0  0  0
   29.7808   11.4396    7.5286 C   0  0  2  0  0  0  0  0  0  0  0  0
   29.4423   10.1605    7.0513 O   0  0  0  0  0  0  0  0  0  0  0  0
   31.2583   11.7308    7.7954 C   0  0  0  0  0  0  0  0  0  0  0  0
   31.3110   13.0278    8.3591 O   0  0  0  0  0  0  0  0  0  0  0  0
   26.6871   12.7142    9.0855 C   0  0  2  0  0  0  0  0  0  0  0  0
   27.3897   11.8348    8.3132 O   0  0  0  0  0  0  0  0  0  0  0  0
   27.0802   14.1376    8.8196 C   0  0  1  0  0  0  0  0  0  0  0  0
   25.9685   11.5358   13.3729 N   0  0  0  0  0  0  0  0  0  0  0  0
   35.2832    5.8933    2.0595 O   0  0  0  0  0  0  0  0  0  0  0  0
   26.2690   15.0923    9.7791 C   0  0  2  0  0  0  0  0  0  0  0  0
   26.4574   14.7637   11.3007 C   0  0  1  0  0  0  0  0  0  0  0  0
   26.0640   13.3937   11.5332 C   0  0  1  0  0  0  0  0  0  0  0  0
   26.8302   12.4542   10.6215 O   0  0  0  0  0  0  0  0  0  0  0  0
   26.2806   13.0021   13.0605 C   0  0  0  0  0  0  0  0  0  0  0  0
   28.4530   14.3165    9.0834 N   0  0  0  0  0  0  0  0  0  0  0  0
   24.3314    5.2227    8.8215 O   0  0  0  0  0  0  0  0  0  0  0  0
   34.1534    7.8638    2.0812 C   0  0  0  0  0  0  0  0  0  0  0  0
   27.5693   14.8803   11.5606 O   0  0  0  0  0  0  0  0  0  0  0  0
   25.1493   14.9642    9.5489 O   0  0  0  0  0  0  0  0  0  0  0  0
   33.3485    6.2318    3.5943 C   0  0  0  0  0  0  0  0  0  0  0  0
   35.2199    8.6227    1.6538 C   0  0  0  0  0  0  0  0  0  0  0  0
   34.6260    6.8826    2.8488 C   0  0  1  0  0  0  0  0  0  0  0  0
   23.5960    4.1623    6.4900 F   0  0  0  0  0  0  0  0  0  0  0  0
  1  2  1  1  0  0  0
  1 10  1  0  0  0  0
  1  3  1  0  0  0  0
  3  4  1  1  0  0  0
  3  6  1  0  0  0  0
  5 46  2  0  0  0  0
  6 42  1  1  0  0  0
  6  8  1  0  0  0  0
  7 47  1  0  0  0  0
  8  9  1  0  0  0  0
  8 49  1  6  0  0  0
  9 10  1  0  0  0  0
  9 11  1  6  0  0  0
 11 12  1  0  0  0  0
 13 14  1  6  0  0  0
 13 15  1  0  0  0  0
 13 21  1  0  0  0  0
 14 46  1  0  0  0  0
 15 16  1  0  0  0  0
 16 17  1  6  0  0  0
 16 18  1  0  0  0  0
 18  2  1  1  0  0  0
 18 19  1  0  0  0  0
 19 20  1  1  0  0  0
 19 21  1  0  0  0  0
 21 22  1  1  0  0  0
 23 20  1  1  0  0  0
 23 24  1  0  0  0  0
 23 28  1  0  0  0  0
 24 25  1  6  0  0  0
 24 26  1  0  0  0  0
 26 27  1  0  0  0  0
 26 32  1  6  0  0  0
 27 28  1  0  0  0  0
 27 29  1  1  0  0  0
 29 30  1  0  0  0  0
 31 32  1  6  0  0  0
 31 33  1  0  0  0  0
 31 39  1  0  0  0  0
 33 36  1  0  0  0  0
 33 41  1  1  0  0  0
 34 40  1  0  0  0  0
 35 48  1  0  0  0  0
 36 37  1  0  0  0  0
 36 45  1  6  0  0  0
 37 38  1  0  0  0  0
 37 44  1  6  0  0  0
 38 39  1  0  0  0  0
 38 40  1  1  0  0  0
 43 47  1  0  0  0  0
 46 48  1  0  0  0  0
 48 43  1  6  0  0  0
M  END
>  <CHROM.1>
-153.25923238,-72.99011567,-178.28226098,-79.48017376,-49.25926617,-165.29131054
103.50316614,-57.88021954,78.90417410,-176.39544468,-178.51887842,-73.21830451
-1.68293988,28.62295011,8.85420539,7.05128760,1.05004440,-0.48313148,-2.61441774

>  <Name>
ligand

>  <RI>
0

>  <Rbt.Current_Directory>
/home/itssahil/PROJECTS/Mol_Feturizer/New_Systems/rnas/4PDQ

>  <Rbt.Executable>
rbdock ($Id: //depot/dev/client3/rdock/2013.1/src/exe/rbdock.cxx#4 $)

>  <Rbt.Library>
libRbt.so (2013.1, Build901 2013/11/27)

>  <Rbt.Parameter_File>
/export/apps/rDock/src/rDock_2013.1_src/data/scripts/dock_solv.prm

>  <Rbt.Receptor>
prm/pocket_docking_8.prm

>  <SCORE>
-12.955

>  <SCORE.INTER>
-7.93149

>  <SCORE.INTER.CONST>
1

>  <SCORE.INTER.POLAR>
0

>  <SCORE.INTER.ROT>
13

>  <SCORE.INTER.SOLV>
14.0821

>  <SCORE.INTER.VDW>
-22.2484

>  <SCORE.INTER.norm>
-0.161867

>  <SCORE.INTRA>
-5.02349

>  <SCORE.INTRA.DIHEDRAL>
-19.7649

>  <SCORE.INTRA.DIHEDRAL.0>
34.5115

>  <SCORE.INTRA.POLAR>
0

>  <SCORE.INTRA.POLAR.0>
0

>  <SCORE.INTRA.REPUL>
0

>  <SCORE.INTRA.REPUL.0>
0

>  <SCORE.INTRA.SOLV>
2.79231

>  <SCORE.INTRA.SOLV.lig_0>
-122.812

>  <SCORE.INTRA.VDW>
3.46281

>  <SCORE.INTRA.VDW.0>
-7.46208

>  <SCORE.INTRA.norm>
-0.10252

>  <SCORE.RESTR>
0

>  <SCORE.RESTR.CAVITY>
0

>  <SCORE.RESTR.norm>
0

>  <SCORE.SYSTEM>
0

>  <SCORE.SYSTEM.CONST>
0

>  <SCORE.SYSTEM.DIHEDRAL>
0

>  <SCORE.SYSTEM.SOLV>
0

>  <SCORE.SYSTEM.norm>
0

>  <SCORE.heavy>
49

>  <SCORE.norm>
-0.264387

>  <RMSD>
6.627

$$$$
ligand
 OpenBabel11021811513D
libRbt.so/2013.1/901 2013/11/27
 49 52  0  0  0  0  0  0  0  0999 V2000
   26.1371    6.6709   -0.0082 C   0  0  2  0  0  0  0  0  0  0  0  0
   25.7195    7.7458    0.7806 O   0  0  0  0  0  0  0  0  0  0  0  0
   26.2700    5.3795    0.8816 C   0  0  2  0  0  0  0  0  0  0  0  0
   24.9251    5.0753    1.5227 N   0  0  0  0  0  0  0  0  0  0  0  0
   27.0012   12.3336   -4.1591 O   0  0  0  0  0  0  0  0  0  0  0  0
   27.3731    5.5715    1.9484 C   0  0  2  0  0  0  0  0  0  0  0  0
   23.2246   16.7017   -4.2717 N   0  0  0  0  0  0  0  0  0  0  0  0
   28.7170    5.8972    1.2779 C   0  0  2  0  0  0  0  0  0  0  0  0
   28.6216    7.1950    0.3690 C   0  0  2  0  0  0  0  0  0  0  0  0
   27.4855    6.9810   -0.6330 O   0  0  0  0  0  0  0  0  0  0  0  0
   29.9705    7.4865   -0.3502 C   0  0  0  0  0  0  0  0  0  0  0  0
   31.0532    7.7239    0.5360 N   0  0  0  0  0  0  0  0  0  0  0  0
   26.2150   11.3874   -1.5207 C   0  0  2  0  0  0  0  0  0  0  0  0
   25.9893   12.7862   -1.9890 N   0  0  0  0  0  0  0  0  0  0  0  0
   24.7714   10.6986   -1.3866 C   0  0  0  0  0  0  0  0  0  0  0  0
   24.9184    9.2030   -0.9179 C   0  0  2  0  0  0  0  0  0  0  0  0
   23.6010    8.5667   -0.7718 N   0  0  0  0  0  0  0  0  0  0  0  0
   25.6393    9.1385    0.4434 C   0  0  2  0  0  0  0  0  0  0  0  0
   27.0666    9.8141    0.3469 C   0  0  2  0  0  0  0  0  0  0  0  0
   27.6726    9.6946    1.6878 O   0  0  0  0  0  0  0  0  0  0  0  0
   26.8839   11.3612   -0.0707 C   0  0  1  0  0  0  0  0  0  0  0  0
   28.1489   11.9393   -0.1425 O   0  0  0  0  0  0  0  0  0  0  0  0
   27.3325   10.3363    2.7533 C   0  0  1  0  0  0  0  0  0  0  0  0
   27.7390    9.6708    4.1011 C   0  0  2  0  0  0  0  0  0  0  0  0
   26.6901    8.8525    4.5134 O   0  0  0  0  0  0  0  0  0  0  0  0
   27.8358   10.8869    4.9255 C   0  0  1  0  0  0  0  0  0  0  0  0
   28.4731   12.0143    4.0558 C   0  0  2  0  0  0  0  0  0  0  0  0
   27.8431   11.7068    2.8364 O   0  0  0  0  0  0  0  0  0  0  0  0
   29.9962   12.1524    4.0540 C   0  0  0  0  0  0  0  0  0  0  0  0
   30.3786   12.3397    5.4036 O   0  0  0  0  0  0  0  0  0  0  0  0
   25.9579   10.5817    6.4759 C   0  0  2  0  0  0  0  0  0  0  0  0
   26.4407   11.2127    5.3659 O   0  0  0  0  0  0  0  0  0  0  0  0
   24.5702   11.0341    6.8233 C   0  0  1  0  0  0  0  0  0  0  0  0
   28.8192    9.8568    9.9198 N   0  0  0  0  0  0  0  0  0  0  0  0
   26.8258   15.0378   -4.9252 O   0  0  0  0  0  0  0  0  0  0  0  0
   24.0966   10.3051    8.1403 C   0  0  2  0  0  0  0  0  0  0  0  0
   25.0517   10.5311    9.3631 C   0  0  1  0  0  0  0  0  0  0  0  0
   26.3768   10.0798    9.0084 C   0  0  1  0  0  0  0  0  0  0  0  0
   26.8559   10.7664    7.7435 O   0  0  0  0  0  0  0  0  0  0  0  0
   27.3921   10.3312   10.2081 C   0  0  0  0  0  0  0  0  0  0  0  0
   24.5615   12.4226    7.0651 N   0  0  0  0  0  0  0  0  0  0  0  0
   27.4782    4.6078    2.5538 O   0  0  0  0  0  0  0  0  0  0  0  0
   24.8116   14.7356   -3.9194 C   0  0  0  0  0  0  0  0  0  0  0  0
   25.0901   11.6560    9.5887 O   0  0  0  0  0  0  0  0  0  0  0  0
   24.0812    9.1730    7.9371 O   0  0  0  0  0  0  0  0  0  0  0  0
   26.4547   13.1219   -3.3745 C   0  0  0  0  0  0  0  0  0  0  0  0
   24.4698   16.0644   -4.0351 C   0  0  0  0  0  0  0  0  0  0  0  0
   26.1296   14.6625   -3.7386 C   0  0  1  0  0  0  0  0  0  0  0  0
   29.1200    4.8223    0.4658 F   0  0  0  0  0  0  0  0  0  0  0  0
  1  2  1  1  0  0  0
  1 10  1  0  0  0  0
  1  3  1  0  0  0  0
  3  4  1  1  0  0  0
  3  6  1  0  0  0  0
  5 46  2  0  0  0  0
  6 42  1  6  0  0  0
  6  8  1  0  0  0  0
  7 47  1  0  0  0  0
  8  9  1  0  0  0  0
  8 49  1  6  0  0  0
  9 10  1  0  0  0  0
  9 11  1  6  0  0  0
 11 12  1  0  0  0  0
 13 14  1  1  0  0  0
 13 15  1  0  0  0  0
 13 21  1  0  0  0  0
 14 46  1  0  0  0  0
 15 16  1  0  0  0  0
 16 17  1  1  0  0  0
 16 18  1  0  0  0  0
 18  2  1  6  0  0  0
 18 19  1  0  0  0  0
 19 20  1  1  0  0  0
 19 21  1  0  0  0  0
 21 22  1  6  0  0  0
 23 20  1  6  0  0  0
 23 24  1  0  0  0  0
 23 28  1  0  0  0  0
 24 25  1  1  0  0  0
 24 26  1  0  0  0  0
 26 27  1  0  0  0  0
 26 32  1  6  0  0  0
 27 28  1  0  0  0  0
 27 29  1  6  0  0  0
 29 30  1  0  0  0  0
 31 32  1  6  0  0  0
 31 33  1  0  0  0  0
 31 39  1  0  0  0  0
 33 36  1  0  0  0  0
 33 41  1  1  0  0  0
 34 40  1  0  0  0  0
 35 48  1  0  0  0  0
 36 37  1  0  0  0  0
 36 45  1  6  0  0  0
 37 38  1  0  0  0  0
 37 44  1  6  0  0  0
 38 39  1  0  0  0  0
 38 40  1  1  0  0  0
 43 47  1  0  0  0  0
 46 48  1  0  0  0  0
 48 43  1  6  0  0  0
M  END
>  <CHROM.1>
170.73147276,47.99145544,-60.86999850,-112.03814343,-71.38996566,157.93760215
84.45035182,-57.21906244,178.23283518,179.02403193,178.07121672,-69.37660010
-13.34641377,26.73243054,10.14457742,2.19192108,-1.73543446,-1.30485408,1.63341375

>  <Name>
ligand

>  <RI>
0

>  <Rbt.Current_Directory>
/home/itssahil/PROJECTS/Mol_Feturizer/New_Systems/rnas/4PDQ

>  <Rbt.Executable>
rbdock ($Id: //depot/dev/client3/rdock/2013.1/src/exe/rbdock.cxx#4 $)

>  <Rbt.Library>
libRbt.so (2013.1, Build901 2013/11/27)

>  <Rbt.Parameter_File>
/export/apps/rDock/src/rDock_2013.1_src/data/scripts/dock_solv.prm

>  <Rbt.Receptor>
prm/pocket_docking_7.prm

>  <SCORE>
-13.181

>  <SCORE.INTER>
-1.41901

>  <SCORE.INTER.CONST>
1

>  <SCORE.INTER.POLAR>
0

>  <SCORE.INTER.ROT>
13

>  <SCORE.INTER.SOLV>
26.4928

>  <SCORE.INTER.VDW>
-22.0436

>  <SCORE.INTER.norm>
-0.0289594

>  <SCORE.INTRA>
-11.762

>  <SCORE.INTRA.DIHEDRAL>
-25.5028

>  <SCORE.INTRA.DIHEDRAL.0>
34.5115

>  <SCORE.INTRA.POLAR>
0

>  <SCORE.INTRA.POLAR.0>
0

>  <SCORE.INTRA.REPUL>
0

>  <SCORE.INTRA.REPUL.0>
0

>  <SCORE.INTRA.SOLV>
-3.96398

>  <SCORE.INTRA.SOLV.lig_0>
-122.812

>  <SCORE.INTRA.VDW>
2.97141

>  <SCORE.INTRA.VDW.0>
-7.46208

>  <SCORE.INTRA.norm>
-0.240041

>  <SCORE.RESTR>
0

>  <SCORE.RESTR.CAVITY>
0

>  <SCORE.RESTR.norm>
0

>  <SCORE.SYSTEM>
0

>  <SCORE.SYSTEM.CONST>
0

>  <SCORE.SYSTEM.DIHEDRAL>
0

>  <SCORE.SYSTEM.SOLV>
0

>  <SCORE.SYSTEM.norm>
0

>  <SCORE.heavy>
49

>  <SCORE.norm>
-0.269

>  <RMSD>
6.669

$$$$
ligand
 OpenBabel11021811513D
libRbt.so/2013.1/901 2013/11/27
 49 52  0  0  0  0  0  0  0  0999 V2000
   29.6202   10.5898    3.0730 C   0  0  2  0  0  0  0  0  0  0  0  0
   29.2787   11.3648    1.9618 O   0  0  0  0  0  0  0  0  0  0  0  0
   30.9087   11.1808    3.7567 C   0  0  2  0  0  0  0  0  0  0  0  0
   30.6365   12.6170    4.1757 N   0  0  0  0  0  0  0  0  0  0  0  0
   26.9029   13.2247   -4.0025 O   0  0  0  0  0  0  0  0  0  0  0  0
   32.1171   11.0928    2.7954 C   0  0  2  0  0  0  0  0  0  0  0  0
   26.5031   13.4981   -7.6080 N   0  0  0  0  0  0  0  0  0  0  0  0
   32.3599    9.6360    2.3707 C   0  0  2  0  0  0  0  0  0  0  0  0
   31.0792    9.0042    1.6777 C   0  0  2  0  0  0  0  0  0  0  0  0
   29.9012    9.1618    2.6410 O   0  0  0  0  0  0  0  0  0  0  0  0
   31.3136    7.5127    1.3008 C   0  0  0  0  0  0  0  0  0  0  0  0
   32.3599    7.3160    0.3625 N   0  0  0  0  0  0  0  0  0  0  0  0
   26.5398   12.2786   -1.2734 C   0  0  2  0  0  0  0  0  0  0  0  0
   25.5325   12.0663   -2.3538 N   0  0  0  0  0  0  0  0  0  0  0  0
   27.6678   11.1512   -1.4551 C   0  0  0  0  0  0  0  0  0  0  0  0
   28.7905   11.3175   -0.3641 C   0  0  2  0  0  0  0  0  0  0  0  0
   29.8200   10.2775   -0.5075 N   0  0  0  0  0  0  0  0  0  0  0  0
   28.1833   11.2042    1.0485 C   0  0  2  0  0  0  0  0  0  0  0  0
   27.0626   12.3008    1.2594 C   0  0  2  0  0  0  0  0  0  0  0  0
   26.5541   12.1142    2.6327 O   0  0  0  0  0  0  0  0  0  0  0  0
   25.8943   12.0680    0.1721 C   0  0  1  0  0  0  0  0  0  0  0  0
   24.9153   13.0367    0.3790 O   0  0  0  0  0  0  0  0  0  0  0  0
   26.8650   11.1701    3.4541 C   0  0  1  0  0  0  0  0  0  0  0  0
   26.0467   11.1302    4.7782 C   0  0  2  0  0  0  0  0  0  0  0  0
   26.7229   11.8922    5.7280 O   0  0  0  0  0  0  0  0  0  0  0  0
   26.1558    9.6891    5.0599 C   0  0  1  0  0  0  0  0  0  0  0  0
   26.0388    8.9194    3.7081 C   0  0  2  0  0  0  0  0  0  0  0  0
   26.7641    9.8165    2.9033 O   0  0  0  0  0  0  0  0  0  0  0  0
   24.6465    8.5030    3.2315 C   0  0  0  0  0  0  0  0  0  0  0  0
   24.8202    7.9397    1.9449 O   0  0  0  0  0  0  0  0  0  0  0  0
   27.5989    9.8579    7.0378 C   0  0  2  0  0  0  0  0  0  0  0  0
   27.4815    9.4873    5.7293 O   0  0  0  0  0  0  0  0  0  0  0  0
   28.9502    9.5261    7.5992 C   0  0  1  0  0  0  0  0  0  0  0  0
   24.0357    9.0782    9.6471 N   0  0  0  0  0  0  0  0  0  0  0  0
   23.4166   12.3887   -4.1262 O   0  0  0  0  0  0  0  0  0  0  0  0
   28.9982    9.9334    9.1229 C   0  0  2  0  0  0  0  0  0  0  0  0
   27.8808    9.2571    9.9907 C   0  0  1  0  0  0  0  0  0  0  0  0
   26.5913    9.5985    9.4375 C   0  0  1  0  0  0  0  0  0  0  0  0
   26.5194    9.2169    7.9711 O   0  0  0  0  0  0  0  0  0  0  0  0
   25.4259    8.8960   10.2629 C   0  0  0  0  0  0  0  0  0  0  0  0
   29.1826    8.1388    7.5100 N   0  0  0  0  0  0  0  0  0  0  0  0
   33.0471   11.4896    3.3283 O   0  0  0  0  0  0  0  0  0  0  0  0
   24.7945   13.2072   -5.7361 C   0  0  0  0  0  0  0  0  0  0  0  0
   28.0195    8.1190    9.9354 O   0  0  0  0  0  0  0  0  0  0  0  0
   28.8316   11.0692    9.1954 O   0  0  0  0  0  0  0  0  0  0  0  0
   25.8633   12.6176   -3.7086 C   0  0  0  0  0  0  0  0  0  0  0  0
   25.8004   12.8075   -6.5872 C   0  0  0  0  0  0  0  0  0  0  0  0
   24.6864   12.2973   -4.7687 C   0  0  1  0  0  0  0  0  0  0  0  0
   32.6786    8.8557    3.4963 F   0  0  0  0  0  0  0  0  0  0  0  0
  1  2  1  6  0  0  0
  1 10  1  0  0  0  0
  1  3  1  0  0  0  0
  3  4  1  6  0  0  0
  3  6  1  0  0  0  0
  5 46  2  0  0  0  0
  6 42  1  1  0  0  0
  6  8  1  0  0  0  0
  7 47  1  0  0  0  0
  8  9  1  0  0  0  0
  8 49  1  1  0  0  0
  9 10  1  0  0  0  0
  9 11  1  1  0  0  0
 11 12  1  0  0  0  0
 13 14  1  6  0  0  0
 13 15  1  0  0  0  0
 13 21  1  0  0  0  0
 14 46  1  0  0  0  0
 15 16  1  0  0  0  0
 16 17  1  6  0  0  0
 16 18  1  0  0  0  0
 18  2  1  1  0  0  0
 18 19  1  0  0  0  0
 19 20  1  1  0  0  0
 19 21  1  0  0  0  0
 21 22  1  1  0  0  0
 23 20  1  6  0  0  0
 23 24  1  0  0  0  0
 23 28  1  0  0  0  0
 24 25  1  1  0  0  0
 24 26  1  0  0  0  0
 26 27  1  0  0  0  0
 26 32  1  6  0  0  0
 27 28  1  0  0  0  0
 27 29  1  6  0  0  0
 29 30  1  0  0  0  0
 31 32  1  6  0  0  0
 31 33  1  0  0  0  0
 31 39  1  0  0  0  0
 33 36  1  0  0  0  0
 33 41  1  1  0  0  0
 34 40  1  0  0  0  0
 35 48  1  0  0  0  0
 36 37  1  0  0  0  0
 36 45  1  6  0  0  0
 37 38  1  0  0  0  0
 37 44  1  6  0  0  0
 38 39  1  0  0  0  0
 38 40  1  1  0  0  0
 43 47  1  0  0  0  0
 46 48  1  0  0  0  0
 48 43  1  6  0  0  0
M  END
>  <CHROM.1>
-179.72519276,-132.09235126,-62.07030241,-81.12896775,-6.00349629,-173.08802284
75.78182654,174.91273674,176.65947506,-173.47002478,-166.03198062,-160.45132295
-144.04048869,27.80605052,10.57739851,2.64252238,-1.42669414,0.16737902,-1.34987316

>  <Name>
ligand

>  <RI>
0

>  <Rbt.Current_Directory>
/home/itssahil/PROJECTS/Mol_Feturizer/New_Systems/rnas/4PDQ

>  <Rbt.Executable>
rbdock ($Id: //depot/dev/client3/rdock/2013.1/src/exe/rbdock.cxx#4 $)

>  <Rbt.Library>
libRbt.so (2013.1, Build901 2013/11/27)

>  <Rbt.Parameter_File>
/export/apps/rDock/src/rDock_2013.1_src/data/scripts/dock_solv.prm

>  <Rbt.Receptor>
prm/pocket_docking_5.prm

>  <SCORE>
0.676677

>  <SCORE.INTER>
1.49859

>  <SCORE.INTER.CONST>
1

>  <SCORE.INTER.POLAR>
0

>  <SCORE.INTER.ROT>
13

>  <SCORE.INTER.SOLV>
16.8353

>  <SCORE.INTER.VDW>
-16.8794

>  <SCORE.INTER.norm>
0.0305834

>  <SCORE.INTRA>
-0.834323

>  <SCORE.INTRA.DIHEDRAL>
-15.5878

>  <SCORE.INTRA.DIHEDRAL.0>
34.5115

>  <SCORE.INTRA.POLAR>
0

>  <SCORE.INTRA.POLAR.0>
0

>  <SCORE.INTRA.REPUL>
0.0304925

>  <SCORE.INTRA.REPUL.0>
0

>  <SCORE.INTRA.SOLV>
0.226038

>  <SCORE.INTRA.SOLV.lig_0>
-122.812

>  <SCORE.INTRA.VDW>
6.69408

>  <SCORE.INTRA.VDW.0>
-7.46208

>  <SCORE.INTRA.norm>
-0.017027

>  <SCORE.RESTR>
0.0124134

>  <SCORE.RESTR.CAVITY>
0.0124134

>  <SCORE.RESTR.norm>
0.000253334

>  <SCORE.SYSTEM>
0

>  <SCORE.SYSTEM.CONST>
0

>  <SCORE.SYSTEM.DIHEDRAL>
0

>  <SCORE.SYSTEM.SOLV>
0

>  <SCORE.SYSTEM.norm>
0

>  <SCORE.heavy>
49

>  <SCORE.norm>
0.0138097

>  <RMSD>
6.682

$$$$
ligand
 OpenBabel11021811513D
libRbt.so/2013.1/901 2013/11/27
 49 52  0  0  0  0  0  0  0  0999 V2000
   25.3205    7.2861    0.5527 C   0  0  2  0  0  0  0  0  0  0  0  0
   24.5544    8.4027    0.8967 O   0  0  0  0  0  0  0  0  0  0  0  0
   25.2724    6.2296    1.7184 C   0  0  2  0  0  0  0  0  0  0  0  0
   23.8274    5.8253    1.9651 N   0  0  0  0  0  0  0  0  0  0  0  0
   27.1927   12.1705   -4.1087 O   0  0  0  0  0  0  0  0  0  0  0  0
   25.9227    6.8080    2.9968 C   0  0  2  0  0  0  0  0  0  0  0  0
   24.7040   17.0189   -4.6409 N   0  0  0  0  0  0  0  0  0  0  0  0
   27.3745    7.2274    2.7176 C   0  0  2  0  0  0  0  0  0  0  0  0
   27.4636    8.2928    1.5443 C   0  0  2  0  0  0  0  0  0  0  0  0
   26.7627    7.6998    0.3207 O   0  0  0  0  0  0  0  0  0  0  0  0
   28.9400    8.6709    1.2299 C   0  0  0  0  0  0  0  0  0  0  0  0
   29.6844    7.6234    0.6277 N   0  0  0  0  0  0  0  0  0  0  0  0
   25.6778   11.7163   -1.6646 C   0  0  2  0  0  0  0  0  0  0  0  0
   25.5436   12.9503   -2.4931 N   0  0  0  0  0  0  0  0  0  0  0  0
   24.4719   10.7406   -2.0769 C   0  0  0  0  0  0  0  0  0  0  0  0
   24.5517    9.3954   -1.2631 C   0  0  2  0  0  0  0  0  0  0  0  0
   23.4399    8.5007   -1.6174 N   0  0  0  0  0  0  0  0  0  0  0  0
   24.4776    9.6816    0.2501 C   0  0  2  0  0  0  0  0  0  0  0  0
   25.6523   10.6459    0.6896 C   0  0  2  0  0  0  0  0  0  0  0  0
   25.4981   10.8502    2.1435 O   0  0  0  0  0  0  0  0  0  0  0  0
   25.5094   12.0395   -0.1097 C   0  0  1  0  0  0  0  0  0  0  0  0
   26.5462   12.8762    0.2963 O   0  0  0  0  0  0  0  0  0  0  0  0
   26.4148   10.7425    3.0441 C   0  0  1  0  0  0  0  0  0  0  0  0
   27.4995   11.8597    3.0404 C   0  0  2  0  0  0  0  0  0  0  0  0
   28.5480   11.4423    2.2240 O   0  0  0  0  0  0  0  0  0  0  0  0
   27.8680   11.8120    4.4651 C   0  0  1  0  0  0  0  0  0  0  0  0
   26.5670   11.5889    5.2964 C   0  0  2  0  0  0  0  0  0  0  0  0
   25.9216   10.6954    4.4225 O   0  0  0  0  0  0  0  0  0  0  0  0
   25.7854   12.8190    5.7601 C   0  0  0  0  0  0  0  0  0  0  0  0
   25.5018   13.5706    4.5951 O   0  0  0  0  0  0  0  0  0  0  0  0
   29.2676   10.3666    5.8706 C   0  0  2  0  0  0  0  0  0  0  0  0
   28.8496   10.6890    4.6117 O   0  0  0  0  0  0  0  0  0  0  0  0
   30.2642   11.3531    6.4041 C   0  0  1  0  0  0  0  0  0  0  0  0
   32.1874    6.8891    6.4023 N   0  0  0  0  0  0  0  0  0  0  0  0
   26.8616   14.4267   -5.7406 O   0  0  0  0  0  0  0  0  0  0  0  0
   30.7409   10.8927    7.8362 C   0  0  2  0  0  0  0  0  0  0  0  0
   31.3544    9.4498    7.8617 C   0  0  1  0  0  0  0  0  0  0  0  0
   30.3747    8.5184    7.3537 C   0  0  1  0  0  0  0  0  0  0  0  0
   29.8993    8.9393    5.9760 O   0  0  0  0  0  0  0  0  0  0  0  0
   30.9714    7.0433    7.3202 C   0  0  0  0  0  0  0  0  0  0  0  0
   31.3935   11.4017    5.5623 N   0  0  0  0  0  0  0  0  0  0  0  0
   25.9121    6.0095    3.8145 O   0  0  0  0  0  0  0  0  0  0  0  0
   24.8182   14.4726   -4.7496 C   0  0  0  0  0  0  0  0  0  0  0  0
   32.2729    9.4355    7.1734 O   0  0  0  0  0  0  0  0  0  0  0  0
   29.8238   10.8747    8.5303 O   0  0  0  0  0  0  0  0  0  0  0  0
   26.3963   13.0383   -3.7235 C   0  0  0  0  0  0  0  0  0  0  0  0
   24.5168   15.7339   -5.2125 C   0  0  0  0  0  0  0  0  0  0  0  0
   26.1291   14.4204   -4.5172 C   0  0  1  0  0  0  0  0  0  0  0  0
   28.1349    6.1039    2.3476 F   0  0  0  0  0  0  0  0  0  0  0  0
  1  2  1  1  0  0  0
  1 10  1  0  0  0  0
  1  3  1  0  0  0  0
  3  4  1  1  0  0  0
  3  6  1  0  0  0  0
  5 46  2  0  0  0  0
  6 42  1  1  0  0  0
  6  8  1  0  0  0  0
  7 47  1  0  0  0  0
  8  9  1  0  0  0  0
  8 49  1  6  0  0  0
  9 10  1  0  0  0  0
  9 11  1  6  0  0  0
 11 12  1  0  0  0  0
 13 14  1  6  0  0  0
 13 15  1  0  0  0  0
 13 21  1  0  0  0  0
 14 46  1  0  0  0  0
 15 16  1  0  0  0  0
 16 17  1  6  0  0  0
 16 18  1  0  0  0  0
 18  2  1  1  0  0  0
 18 19  1  0  0  0  0
 19 20  1  1  0  0  0
 19 21  1  0  0  0  0
 21 22  1  1  0  0  0
 23 20  1  6  0  0  0
 23 24  1  0  0  0  0
 23 28  1  0  0  0  0
 24 25  1  6  0  0  0
 24 26  1  0  0  0  0
 26 27  1  0  0  0  0
 26 32  1  6  0  0  0
 27 28  1  0  0  0  0
 27 29  1  6  0  0  0
 29 30  1  0  0  0  0
 31 32  1  6  0  0  0
 31 33  1  0  0  0  0
 31 39  1  0  0  0  0
 33 36  1  0  0  0  0
 33 41  1  6  0  0  0
 34 40  1  0  0  0  0
 35 48  1  0  0  0  0
 36 37  1  0  0  0  0
 36 45  1  1  0  0  0
 37 38  1  0  0  0  0
 37 44  1  6  0  0  0
 38 39  1  0  0  0  0
 38 40  1  6  0  0  0
 43 47  1  0  0  0  0
 46 48  1  0  0  0  0
 48 43  1  6  0  0  0
M  END
>  <CHROM.1>
169.12739082,37.86342711,69.35816929,-98.07352255,130.93234974,70.77657154
-174.84230946,55.44051491,-75.95956735,-61.82588388,-58.51355130,-70.93592408
4.19609888,27.21610115,10.33250927,1.97779630,2.41105653,-1.00575390,-0.43116121

>  <Name>
ligand

>  <RI>
0

>  <Rbt.Current_Directory>
/home/itssahil/PROJECTS/Mol_Feturizer/New_Systems/rnas/4PDQ

>  <Rbt.Executable>
rbdock ($Id: //depot/dev/client3/rdock/2013.1/src/exe/rbdock.cxx#4 $)

>  <Rbt.Library>
libRbt.so (2013.1, Build901 2013/11/27)

>  <Rbt.Parameter_File>
/export/apps/rDock/src/rDock_2013.1_src/data/scripts/dock_solv.prm

>  <Rbt.Receptor>
prm/pocket_docking_5.prm

>  <SCORE>
-14.7861

>  <SCORE.INTER>
-6.629

>  <SCORE.INTER.CONST>
1

>  <SCORE.INTER.POLAR>
0

>  <SCORE.INTER.ROT>
13

>  <SCORE.INTER.SOLV>
31.6016

>  <SCORE.INTER.VDW>
-27.2199

>  <SCORE.INTER.norm>
-0.135286

>  <SCORE.INTRA>
-8.1571

>  <SCORE.INTRA.DIHEDRAL>
-20.729

>  <SCORE.INTRA.DIHEDRAL.0>
34.5115

>  <SCORE.INTRA.POLAR>
0

>  <SCORE.INTRA.POLAR.0>
0

>  <SCORE.INTRA.REPUL>
0

>  <SCORE.INTRA.REPUL.0>
0

>  <SCORE.INTRA.SOLV>
1.16361

>  <SCORE.INTRA.SOLV.lig_0>
-122.812

>  <SCORE.INTRA.VDW>
1.62561

>  <SCORE.INTRA.VDW.0>
-7.46208

>  <SCORE.INTRA.norm>
-0.166471

>  <SCORE.RESTR>
0

>  <SCORE.RESTR.CAVITY>
0

>  <SCORE.RESTR.norm>
0

>  <SCORE.SYSTEM>
0

>  <SCORE.SYSTEM.CONST>
0

>  <SCORE.SYSTEM.DIHEDRAL>
0

>  <SCORE.SYSTEM.SOLV>
0

>  <SCORE.SYSTEM.norm>
0

>  <SCORE.heavy>
49

>  <SCORE.norm>
-0.301757

>  <RMSD>
6.717

$$$$
ligand
 OpenBabel11021811513D
libRbt.so/2013.1/901 2013/11/27
 49 52  0  0  0  0  0  0  0  0999 V2000
   32.5162   11.3864    1.5693 C   0  0  2  0  0  0  0  0  0  0  0  0
   31.3616   11.8429    0.9286 O   0  0  0  0  0  0  0  0  0  0  0  0
   33.4636   10.6896    0.5233 C   0  0  2  0  0  0  0  0  0  0  0  0
   33.8218   11.6873   -0.5669 N   0  0  0  0  0  0  0  0  0  0  0  0
   24.9725   12.6695   -1.2803 O   0  0  0  0  0  0  0  0  0  0  0  0
   32.7837    9.4311   -0.0647 C   0  0  2  0  0  0  0  0  0  0  0  0
   24.8641    8.1988   -0.1293 N   0  0  0  0  0  0  0  0  0  0  0  0
   32.4136    8.4477    1.0567 C   0  0  2  0  0  0  0  0  0  0  0  0
   31.4585    9.1166    2.1339 C   0  0  2  0  0  0  0  0  0  0  0  0
   32.1473   10.3826    2.6468 O   0  0  0  0  0  0  0  0  0  0  0  0
   31.1330    8.1327    3.2948 C   0  0  0  0  0  0  0  0  0  0  0  0
   32.1451    8.0618    4.2871 N   0  0  0  0  0  0  0  0  0  0  0  0
   27.1431   11.2946    0.0881 C   0  0  2  0  0  0  0  0  0  0  0  0
   25.8751   10.6207   -0.3181 N   0  0  0  0  0  0  0  0  0  0  0  0
   28.2487   10.9175   -1.0127 C   0  0  0  0  0  0  0  0  0  0  0  0
   29.6204   11.6112   -0.6728 C   0  0  2  0  0  0  0  0  0  0  0  0
   30.6475   11.2570   -1.6635 N   0  0  0  0  0  0  0  0  0  0  0  0
   30.1153   11.1634    0.7169 C   0  0  2  0  0  0  0  0  0  0  0  0
   29.0448   11.5173    1.8267 C   0  0  2  0  0  0  0  0  0  0  0  0
   29.6121   11.0588    3.1102 O   0  0  0  0  0  0  0  0  0  0  0  0
   27.6704   10.7428    1.4910 C   0  0  1  0  0  0  0  0  0  0  0  0
   26.7449   11.0606    2.4821 O   0  0  0  0  0  0  0  0  0  0  0  0
   28.9826   10.8991    4.2243 C   0  0  1  0  0  0  0  0  0  0  0  0
   29.8679   10.8926    5.5052 C   0  0  2  0  0  0  0  0  0  0  0  0
   30.2382    9.5761    5.7689 O   0  0  0  0  0  0  0  0  0  0  0  0
   28.8646   11.3780    6.4674 C   0  0  1  0  0  0  0  0  0  0  0  0
   28.0097   12.4777    5.7651 C   0  0  2  0  0  0  0  0  0  0  0  0
   27.9374   11.8907    4.4889 O   0  0  0  0  0  0  0  0  0  0  0  0
   28.4842   13.9289    5.8541 C   0  0  0  0  0  0  0  0  0  0  0  0
   27.6133   14.6817    5.0310 O   0  0  0  0  0  0  0  0  0  0  0  0
   27.2965   10.2815    8.0043 C   0  0  2  0  0  0  0  0  0  0  0  0
   28.0541   10.1843    6.8730 O   0  0  0  0  0  0  0  0  0  0  0  0
   28.1020   10.7367    9.1854 C   0  0  1  0  0  0  0  0  0  0  0  0
   26.0225    6.4188    9.9824 N   0  0  0  0  0  0  0  0  0  0  0  0
   22.6431   11.3858   -2.1699 O   0  0  0  0  0  0  0  0  0  0  0  0
   27.1785   10.7773   10.4643 C   0  0  2  0  0  0  0  0  0  0  0  0
   26.4894    9.4062   10.7868 C   0  0  1  0  0  0  0  0  0  0  0  0
   25.7133    8.9943    9.6407 C   0  0  1  0  0  0  0  0  0  0  0  0
   26.5793    8.9475    8.3961 O   0  0  0  0  0  0  0  0  0  0  0  0
   25.0295    7.5821    9.9077 C   0  0  0  0  0  0  0  0  0  0  0  0
   29.1514    9.8291    9.4328 N   0  0  0  0  0  0  0  0  0  0  0  0
   33.5058    8.9213   -0.7892 O   0  0  0  0  0  0  0  0  0  0  0  0
   23.9833    9.5530   -2.1038 C   0  0  0  0  0  0  0  0  0  0  0  0
   27.3092    8.6264   10.9804 O   0  0  0  0  0  0  0  0  0  0  0  0
   26.3344   11.5350   10.2726 O   0  0  0  0  0  0  0  0  0  0  0  0
   24.8491   11.4659   -1.0122 C   0  0  0  0  0  0  0  0  0  0  0  0
   24.0522    8.4657   -1.2617 C   0  0  0  0  0  0  0  0  0  0  0  0
   23.5441   10.5945   -1.3983 C   0  0  1  0  0  0  0  0  0  0  0  0
   33.5773    8.0110    1.7143 F   0  0  0  0  0  0  0  0  0  0  0  0
  1  2  1  6  0  0  0
  1 10  1  0  0  0  0
  1  3  1  0  0  0  0
  3  4  1  6  0  0  0
  3  6  1  0  0  0  0
  5 46  2  0  0  0  0
  6 42  1  6  0  0  0
  6  8  1  0  0  0  0
  7 47  1  0  0  0  0
  8  9  1  0  0  0  0
  8 49  1  1  0  0  0
  9 10  1  0  0  0  0
  9 11  1  1  0  0  0
 11 12  1  0  0  0  0
 13 14  1  6  0  0  0
 13 15  1  0  0  0  0
 13 21  1  0  0  0  0
 14 46  1  0  0  0  0
 15 16  1  0  0  0  0
 16 17  1  6  0  0  0
 16 18  1  0  0  0  0
 18  2  1  1  0  0  0
 18 19  1  0  0  0  0
 19 20  1  1  0  0  0
 19 21  1  0  0  0  0
 21 22  1  1  0  0  0
 23 20  1  6  0  0  0
 23 24  1  0  0  0  0
 23 28  1  0  0  0  0
 24 25  1  1  0  0  0
 24 26  1  0  0  0  0
 26 27  1  0  0  0  0
 26 32  1  6  0  0  0
 27 28  1  0  0  0  0
 27 29  1  6  0  0  0
 29 30  1  0  0  0  0
 31 32  1  6  0  0  0
 31 33  1  0  0  0  0
 31 39  1  0  0  0  0
 33 36  1  0  0  0  0
 33 41  1  1  0  0  0
 34 40  1  0  0  0  0
 35 48  1  0  0  0  0
 36 37  1  0  0  0  0
 36 45  1  6  0  0  0
 37 38  1  0  0  0  0
 37 44  1  6  0  0  0
 38 39  1  0  0  0  0
 38 40  1  1  0  0  0
 43 47  1  0  0  0  0
 46 48  1  0  0  0  0
 48 43  1  6  0  0  0
M  END
>  <CHROM.1>
90.19087841,-143.59275826,81.66502963,-100.39532019,-164.85467095,-159.49226857
163.05249560,174.29228502,-52.82885103,-68.64094396,-65.60802726,-140.99323383
4.73943915,28.53502733,10.37734975,3.49078066,-1.39453570,-0.07083837,1.66683288

>  <Name>
ligand

>  <RI>
0

>  <Rbt.Current_Directory>
/home/itssahil/PROJECTS/Mol_Feturizer/New_Systems/rnas/4PDQ

>  <Rbt.Executable>
rbdock ($Id: //depot/dev/client3/rdock/2013.1/src/exe/rbdock.cxx#4 $)

>  <Rbt.Library>
libRbt.so (2013.1, Build901 2013/11/27)

>  <Rbt.Parameter_File>
/export/apps/rDock/src/rDock_2013.1_src/data/scripts/dock_solv.prm

>  <Rbt.Receptor>
prm/pocket_docking_2.prm

>  <SCORE>
7.07519

>  <SCORE.INTER>
-0.129757

>  <SCORE.INTER.CONST>
1

>  <SCORE.INTER.POLAR>
0

>  <SCORE.INTER.ROT>
13

>  <SCORE.INTER.SOLV>
21.006

>  <SCORE.INTER.VDW>
-19.3552

>  <SCORE.INTER.norm>
-0.00264809

>  <SCORE.INTRA>
0.0852639

>  <SCORE.INTRA.DIHEDRAL>
-13.9835

>  <SCORE.INTRA.DIHEDRAL.0>
34.5115

>  <SCORE.INTRA.POLAR>
0

>  <SCORE.INTRA.POLAR.0>
0

>  <SCORE.INTRA.REPUL>
0

>  <SCORE.INTRA.REPUL.0>
0

>  <SCORE.INTRA.SOLV>
8.51196

>  <SCORE.INTRA.SOLV.lig_0>
-122.812

>  <SCORE.INTRA.VDW>
2.82101

>  <SCORE.INTRA.VDW.0>
-7.46208

>  <SCORE.INTRA.norm>
0.00174008

>  <SCORE.RESTR>
7.11968

>  <SCORE.RESTR.CAVITY>
7.11968

>  <SCORE.RESTR.norm>
0.1453

>  <SCORE.SYSTEM>
0

>  <SCORE.SYSTEM.CONST>
0

>  <SCORE.SYSTEM.DIHEDRAL>
0

>  <SCORE.SYSTEM.SOLV>
0

>  <SCORE.SYSTEM.norm>
0

>  <SCORE.heavy>
49

>  <SCORE.norm>
0.144392

>  <RMSD>
6.720

$$$$
ligand
 OpenBabel11021811513D
libRbt.so/2013.1/901 2013/11/27
 49 52  0  0  0  0  0  0  0  0999 V2000
   24.3606    7.9870    2.4001 C   0  0  2  0  0  0  0  0  0  0  0  0
   25.2329    8.9911    1.9726 O   0  0  0  0  0  0  0  0  0  0  0  0
   24.6911    7.5947    3.8881 C   0  0  2  0  0  0  0  0  0  0  0  0
   24.5549    8.8258    4.7702 N   0  0  0  0  0  0  0  0  0  0  0  0
   27.3617   12.1427   -3.7851 O   0  0  0  0  0  0  0  0  0  0  0  0
   26.1102    6.9870    3.9824 C   0  0  2  0  0  0  0  0  0  0  0  0
   26.6773   11.7667   -6.7210 N   0  0  0  0  0  0  0  0  0  0  0  0
   26.2292    5.7575    3.0683 C   0  0  2  0  0  0  0  0  0  0  0  0
   25.9006    6.1143    1.5569 C   0  0  2  0  0  0  0  0  0  0  0  0
   24.5140    6.7594    1.5201 O   0  0  0  0  0  0  0  0  0  0  0  0
   25.9689    4.8538    0.6468 C   0  0  0  0  0  0  0  0  0  0  0  0
   27.2518    4.2490    0.6003 N   0  0  0  0  0  0  0  0  0  0  0  0
   25.5660   11.4005   -1.6172 C   0  0  2  0  0  0  0  0  0  0  0  0
   25.2100   12.3967   -2.6698 N   0  0  0  0  0  0  0  0  0  0  0  0
   24.2579   10.5085   -1.3533 C   0  0  0  0  0  0  0  0  0  0  0  0
   24.5538    9.4085   -0.2668 C   0  0  2  0  0  0  0  0  0  0  0  0
   23.3565    8.5974   -0.0013 N   0  0  0  0  0  0  0  0  0  0  0  0
   24.9926   10.0687    1.0556 C   0  0  2  0  0  0  0  0  0  0  0  0
   26.2797   10.9603    0.8293 C   0  0  2  0  0  0  0  0  0  0  0  0
   26.6205   11.5367    2.1450 O   0  0  0  0  0  0  0  0  0  0  0  0
   25.9308   12.1181   -0.2379 C   0  0  1  0  0  0  0  0  0  0  0  0
   27.0723   12.8956   -0.4172 O   0  0  0  0  0  0  0  0  0  0  0  0
   27.3376   10.9930    3.0685 C   0  0  1  0  0  0  0  0  0  0  0  0
   28.8757   11.1976    2.9376 C   0  0  2  0  0  0  0  0  0  0  0  0
   29.3929   10.1334    2.2028 O   0  0  0  0  0  0  0  0  0  0  0  0
   29.2321   11.0980    4.3627 C   0  0  1  0  0  0  0  0  0  0  0  0
   28.1252   11.8194    5.1921 C   0  0  2  0  0  0  0  0  0  0  0  0
   27.0118   11.4182    4.4319 O   0  0  0  0  0  0  0  0  0  0  0  0
   28.2918   13.3130    5.4752 C   0  0  0  0  0  0  0  0  0  0  0  0
   27.1404   13.7107    6.1954 O   0  0  0  0  0  0  0  0  0  0  0  0
   29.8488    9.2730    5.8834 C   0  0  2  0  0  0  0  0  0  0  0  0
   29.3294    9.6352    4.6740 O   0  0  0  0  0  0  0  0  0  0  0  0
   31.3396    9.4368    5.9290 C   0  0  1  0  0  0  0  0  0  0  0  0
   29.7960    5.4290    9.4015 N   0  0  0  0  0  0  0  0  0  0  0  0
   25.2500   14.9274   -4.1095 O   0  0  0  0  0  0  0  0  0  0  0  0
   31.8763    8.9534    7.3319 C   0  0  2  0  0  0  0  0  0  0  0  0
   31.4930    7.4724    7.6763 C   0  0  1  0  0  0  0  0  0  0  0  0
   30.0553    7.3422    7.6357 C   0  0  1  0  0  0  0  0  0  0  0  0
   29.5135    7.8016    6.2953 O   0  0  0  0  0  0  0  0  0  0  0  0
   29.6219    5.8407    7.9368 C   0  0  0  0  0  0  0  0  0  0  0  0
   31.9431    8.6431    4.9330 N   0  0  0  0  0  0  0  0  0  0  0  0
   26.3104    6.6735    5.0631 O   0  0  0  0  0  0  0  0  0  0  0  0
   26.7401   14.0484   -5.5816 C   0  0  0  0  0  0  0  0  0  0  0  0
   31.9511    6.7858    6.8787 O   0  0  0  0  0  0  0  0  0  0  0  0
   31.4021    9.6155    8.1443 O   0  0  0  0  0  0  0  0  0  0  0  0
   26.2448   12.6755   -3.7187 C   0  0  0  0  0  0  0  0  0  0  0  0
   26.7101   13.1834   -6.6525 C   0  0  0  0  0  0  0  0  0  0  0  0
   25.7083   13.7606   -4.7893 C   0  0  1  0  0  0  0  0  0  0  0  0
   25.3314    4.7599    3.4880 F   0  0  0  0  0  0  0  0  0  0  0  0
  1  2  1  6  0  0  0
  1 10  1  0  0  0  0
  1  3  1  0  0  0  0
  3  4  1  1  0  0  0
  3  6  1  0  0  0  0
  5 46  2  0  0  0  0
  6 42  1  1  0  0  0
  6  8  1  0  0  0  0
  7 47  1  0  0  0  0
  8  9  1  0  0  0  0
  8 49  1  1  0  0  0
  9 10  1  0  0  0  0
  9 11  1  6  0  0  0
 11 12  1  0  0  0  0
 13 14  1  6  0  0  0
 13 15  1  0  0  0  0
 13 21  1  0  0  0  0
 14 46  1  0  0  0  0
 15 16  1  0  0  0  0
 16 17  1  1  0  0  0
 16 18  1  0  0  0  0
 18  2  1  1  0  0  0
 18 19  1  0  0  0  0
 19 20  1  1  0  0  0
 19 21  1  0  0  0  0
 21 22  1  6  0  0  0
 23 20  1  6  0  0  0
 23 24  1  0  0  0  0
 23 28  1  0  0  0  0
 24 25  1  6  0  0  0
 24 26  1  0  0  0  0
 26 27  1  0  0  0  0
 26 32  1  1  0  0  0
 27 28  1  0  0  0  0
 27 29  1  6  0  0  0
 29 30  1  0  0  0  0
 31 32  1  6  0  0  0
 31 33  1  0  0  0  0
 31 39  1  0  0  0  0
 33 36  1  0  0  0  0
 33 41  1  6  0  0  0
 34 40  1  0  0  0  0
 35 48  1  0  0  0  0
 36 37  1  0  0  0  0
 36 45  1  1  0  0  0
 37 38  1  0  0  0  0
 37 44  1  6  0  0  0
 38 39  1  0  0  0  0
 38 40  1  6  0  0  0
 43 47  1  0  0  0  0
 46 48  1  0  0  0  0
 48 43  1  6  0  0  0
M  END
>  <CHROM.1>
-147.12965800,-57.96473458,-62.01621990,-139.49570092,85.77932023,85.48008233
170.12348270,178.12584079,-75.02631996,72.51277045,-54.60420353,-149.74304396
-127.67115208,27.31957555,9.61386726,2.31035908,2.11068916,-0.88858472,-0.71366532

>  <Name>
ligand

>  <RI>
0

>  <Rbt.Current_Directory>
/home/itssahil/PROJECTS/Mol_Feturizer/New_Systems/rnas/4PDQ

>  <Rbt.Executable>
rbdock ($Id: //depot/dev/client3/rdock/2013.1/src/exe/rbdock.cxx#4 $)

>  <Rbt.Library>
libRbt.so (2013.1, Build901 2013/11/27)

>  <Rbt.Parameter_File>
/export/apps/rDock/src/rDock_2013.1_src/data/scripts/dock_solv.prm

>  <Rbt.Receptor>
prm/pocket_docking_6.prm

>  <SCORE>
-15.8147

>  <SCORE.INTER>
-10.6837

>  <SCORE.INTER.CONST>
1

>  <SCORE.INTER.POLAR>
0

>  <SCORE.INTER.ROT>
13

>  <SCORE.INTER.SOLV>
27.6644

>  <SCORE.INTER.VDW>
-28.6106

>  <SCORE.INTER.norm>
-0.218035

>  <SCORE.INTRA>
-5.13098

>  <SCORE.INTRA.DIHEDRAL>
-18.1641

>  <SCORE.INTRA.DIHEDRAL.0>
34.5115

>  <SCORE.INTRA.POLAR>
0

>  <SCORE.INTRA.POLAR.0>
0

>  <SCORE.INTRA.REPUL>
0

>  <SCORE.INTRA.REPUL.0>
0

>  <SCORE.INTRA.SOLV>
1.24534

>  <SCORE.INTRA.SOLV.lig_0>
-122.812

>  <SCORE.INTRA.VDW>
3.3284

>  <SCORE.INTRA.VDW.0>
-7.46208

>  <SCORE.INTRA.norm>
-0.104714

>  <SCORE.RESTR>
0

>  <SCORE.RESTR.CAVITY>
0

>  <SCORE.RESTR.norm>
0

>  <SCORE.SYSTEM>
0

>  <SCORE.SYSTEM.CONST>
0

>  <SCORE.SYSTEM.DIHEDRAL>
0

>  <SCORE.SYSTEM.SOLV>
0

>  <SCORE.SYSTEM.norm>
0

>  <SCORE.heavy>
49

>  <SCORE.norm>
-0.322749

>  <RMSD>
6.744

$$$$
ligand
 OpenBabel11021811513D
libRbt.so/2013.1/901 2013/11/27
 49 52  0  0  0  0  0  0  0  0999 V2000
   32.2140   11.4289    1.7433 C   0  0  2  0  0  0  0  0  0  0  0  0
   31.4202   10.3387    2.1085 O   0  0  0  0  0  0  0  0  0  0  0  0
   32.2255   11.5761    0.1764 C   0  0  2  0  0  0  0  0  0  0  0  0
   30.8001   11.7698   -0.3166 N   0  0  0  0  0  0  0  0  0  0  0  0
   25.8403   12.1595   -1.5240 O   0  0  0  0  0  0  0  0  0  0  0  0
   32.8850   10.3387   -0.4761 C   0  0  2  0  0  0  0  0  0  0  0  0
   23.4097    8.3625    0.5908 N   0  0  0  0  0  0  0  0  0  0  0  0
   34.3161   10.1523    0.0520 C   0  0  2  0  0  0  0  0  0  0  0  0
   34.3450   10.0020    1.6320 C   0  0  2  0  0  0  0  0  0  0  0  0
   33.6367   11.2189    2.2300 O   0  0  0  0  0  0  0  0  0  0  0  0
   35.8012    9.8696    2.1644 C   0  0  0  0  0  0  0  0  0  0  0  0
   36.5730    8.8907    1.4861 N   0  0  0  0  0  0  0  0  0  0  0  0
   27.4691   10.6359    0.3470 C   0  0  2  0  0  0  0  0  0  0  0  0
   26.0402   10.3167    0.0579 N   0  0  0  0  0  0  0  0  0  0  0  0
   28.2774    9.2497    0.3053 C   0  0  0  0  0  0  0  0  0  0  0  0
   29.8078    9.4986    0.5773 C   0  0  2  0  0  0  0  0  0  0  0  0
   30.5563    8.2331    0.5618 N   0  0  0  0  0  0  0  0  0  0  0  0
   30.0045   10.1589    1.9566 C   0  0  2  0  0  0  0  0  0  0  0  0
   29.2157   11.5282    2.0328 C   0  0  2  0  0  0  0  0  0  0  0  0
   29.4725   12.0796    3.3779 O   0  0  0  0  0  0  0  0  0  0  0  0
   27.6441   11.2372    1.8161 C   0  0  1  0  0  0  0  0  0  0  0  0
   26.9673   12.4518    1.8945 O   0  0  0  0  0  0  0  0  0  0  0  0
   28.9490   11.6892    4.4898 C   0  0  1  0  0  0  0  0  0  0  0  0
   27.9248   12.6688    5.1346 C   0  0  2  0  0  0  0  0  0  0  0  0
   28.6177   13.5116    6.0004 O   0  0  0  0  0  0  0  0  0  0  0  0
   27.1125   11.6844    5.8689 C   0  0  1  0  0  0  0  0  0  0  0  0
   26.9599   10.4158    4.9740 C   0  0  2  0  0  0  0  0  0  0  0  0
   28.2549   10.4009    4.4251 O   0  0  0  0  0  0  0  0  0  0  0  0
   25.7770   10.3514    4.0067 C   0  0  0  0  0  0  0  0  0  0  0  0
   24.6178   10.5918    4.7819 O   0  0  0  0  0  0  0  0  0  0  0  0
   27.1149   10.9281    8.2037 C   0  0  2  0  0  0  0  0  0  0  0  0
   27.8390   11.4065    7.1500 O   0  0  0  0  0  0  0  0  0  0  0  0
   27.9241   10.8737    9.4660 C   0  0  1  0  0  0  0  0  0  0  0  0
   24.5701    7.4127    7.2682 N   0  0  0  0  0  0  0  0  0  0  0  0
   23.1405   11.6071   -2.0401 O   0  0  0  0  0  0  0  0  0  0  0  0
   27.0439   10.2656   10.6260 C   0  0  2  0  0  0  0  0  0  0  0  0
   26.4692    8.8434   10.3006 C   0  0  1  0  0  0  0  0  0  0  0  0
   25.6873    8.9233    9.0891 C   0  0  1  0  0  0  0  0  0  0  0  0
   26.5118    9.5059    7.9568 O   0  0  0  0  0  0  0  0  0  0  0  0
   25.1190    7.4896    8.6957 C   0  0  0  0  0  0  0  0  0  0  0  0
   29.0454   10.0393    9.2849 N   0  0  0  0  0  0  0  0  0  0  0  0
   32.9181   10.4875   -1.6088 O   0  0  0  0  0  0  0  0  0  0  0  0
   23.8650    9.4895   -1.6522 C   0  0  0  0  0  0  0  0  0  0  0  0
   27.3503    8.1284   10.1279 O   0  0  0  0  0  0  0  0  0  0  0  0
   26.1402   10.9582   10.7904 O   0  0  0  0  0  0  0  0  0  0  0  0
   25.3336   11.1982   -0.9282 C   0  0  0  0  0  0  0  0  0  0  0  0
   24.1073    8.6119   -0.6191 C   0  0  0  0  0  0  0  0  0  0  0  0
   23.8052   10.7195   -1.1436 C   0  0  1  0  0  0  0  0  0  0  0  0
   35.1038   11.2637   -0.2967 F   0  0  0  0  0  0  0  0  0  0  0  0
  1  2  1  6  0  0  0
  1 10  1  0  0  0  0
  1  3  1  0  0  0  0
  3  4  1  6  0  0  0
  3  6  1  0  0  0  0
  5 46  2  0  0  0  0
  6 42  1  6  0  0  0
  6  8  1  0  0  0  0
  7 47  1  0  0  0  0
  8  9  1  0  0  0  0
  8 49  1  1  0  0  0
  9 10  1  0  0  0  0
  9 11  1  1  0  0  0
 11 12  1  0  0  0  0
 13 14  1  1  0  0  0
 13 15  1  0  0  0  0
 13 21  1  0  0  0  0
 14 46  1  0  0  0  0
 15 16  1  0  0  0  0
 16 17  1  1  0  0  0
 16 18  1  0  0  0  0
 18  2  1  6  0  0  0
 18 19  1  0  0  0  0
 19 20  1  1  0  0  0
 19 21  1  0  0  0  0
 21 22  1  6  0  0  0
 23 20  1  6  0  0  0
 23 24  1  0  0  0  0
 23 28  1  0  0  0  0
 24 25  1  1  0  0  0
 24 26  1  0  0  0  0
 26 27  1  0  0  0  0
 26 32  1  1  0  0  0
 27 28  1  0  0  0  0
 27 29  1  6  0  0  0
 29 30  1  0  0  0  0
 31 32  1  6  0  0  0
 31 33  1  0  0  0  0
 31 39  1  0  0  0  0
 33 36  1  0  0  0  0
 33 41  1  6  0  0  0
 34 40  1  0  0  0  0
 35 48  1  0  0  0  0
 36 37  1  0  0  0  0
 36 45  1  6  0  0  0
 37 38  1  0  0  0  0
 37 44  1  6  0  0  0
 38 39  1  0  0  0  0
 38 40  1  6  0  0  0
 43 47  1  0  0  0  0
 46 48  1  0  0  0  0
 48 43  1  6  0  0  0
M  END
>  <CHROM.1>
-65.82976545,89.99807365,-49.91013319,-134.29251247,-75.88835298,-109.21259117
156.85521340,-53.37884796,-172.19152452,-166.11853253,56.52598752,-160.99779543
-3.39494449,28.51970829,10.44959666,3.32686809,-1.00855401,0.03977412,1.63344159

>  <Name>
ligand

>  <RI>
0

>  <Rbt.Current_Directory>
/home/itssahil/PROJECTS/Mol_Feturizer/New_Systems/rnas/4PDQ

>  <Rbt.Executable>
rbdock ($Id: //depot/dev/client3/rdock/2013.1/src/exe/rbdock.cxx#4 $)

>  <Rbt.Library>
libRbt.so (2013.1, Build901 2013/11/27)

>  <Rbt.Parameter_File>
/export/apps/rDock/src/rDock_2013.1_src/data/scripts/dock_solv.prm

>  <Rbt.Receptor>
prm/pocket_docking_2.prm

>  <SCORE>
1.19449

>  <SCORE.INTER>
0.257069

>  <SCORE.INTER.CONST>
1

>  <SCORE.INTER.POLAR>
0

>  <SCORE.INTER.ROT>
13

>  <SCORE.INTER.SOLV>
24.3839

>  <SCORE.INTER.VDW>
-20.2233

>  <SCORE.INTER.norm>
0.00524631

>  <SCORE.INTRA>
-0.500755

>  <SCORE.INTRA.DIHEDRAL>
-16.0434

>  <SCORE.INTRA.DIHEDRAL.0>
34.5115

>  <SCORE.INTRA.POLAR>
0

>  <SCORE.INTRA.POLAR.0>
0

>  <SCORE.INTRA.REPUL>
0

>  <SCORE.INTRA.REPUL.0>
0

>  <SCORE.INTRA.SOLV>
6.22596

>  <SCORE.INTRA.SOLV.lig_0>
-122.812

>  <SCORE.INTRA.VDW>
4.40795

>  <SCORE.INTRA.VDW.0>
-7.46208

>  <SCORE.INTRA.norm>
-0.0102195

>  <SCORE.RESTR>
1.43818

>  <SCORE.RESTR.CAVITY>
1.43818

>  <SCORE.RESTR.norm>
0.0293506

>  <SCORE.SYSTEM>
0

>  <SCORE.SYSTEM.CONST>
0

>  <SCORE.SYSTEM.DIHEDRAL>
0

>  <SCORE.SYSTEM.SOLV>
0

>  <SCORE.SYSTEM.norm>
0

>  <SCORE.heavy>
49

>  <SCORE.norm>
0.0243774

>  <RMSD>
6.765

$$$$
ligand
 OpenBabel11021811513D
libRbt.so/2013.1/901 2013/11/27
 49 52  0  0  0  0  0  0  0  0999 V2000
   28.2013    7.8534    8.7326 C   0  0  2  0  0  0  0  0  0  0  0  0
   28.7381    7.0902    7.6927 O   0  0  0  0  0  0  0  0  0  0  0  0
   27.5871    6.9028    9.8264 C   0  0  2  0  0  0  0  0  0  0  0  0
   28.6753    5.9805   10.3531 N   0  0  0  0  0  0  0  0  0  0  0  0
   33.7198    5.1245    3.5698 O   0  0  0  0  0  0  0  0  0  0  0  0
   26.4026    6.1004    9.2391 C   0  0  2  0  0  0  0  0  0  0  0  0
   37.4615    8.4517    0.9126 N   0  0  0  0  0  0  0  0  0  0  0  0
   25.3260    7.0530    8.6958 C   0  0  2  0  0  0  0  0  0  0  0  0
   25.9096    8.0303    7.5895 C   0  0  2  0  0  0  0  0  0  0  0  0
   27.1084    8.7610    8.1972 O   0  0  0  0  0  0  0  0  0  0  0  0
   24.8279    9.0285    7.0843 C   0  0  0  0  0  0  0  0  0  0  0  0
   23.7467    8.4078    6.4064 N   0  0  0  0  0  0  0  0  0  0  0  0
   32.0562    7.1081    4.9011 C   0  0  2  0  0  0  0  0  0  0  0  0
   32.8406    7.3951    3.6645 N   0  0  0  0  0  0  0  0  0  0  0  0
   30.5991    6.6256    4.4314 C   0  0  0  0  0  0  0  0  0  0  0  0
   29.7076    6.2760    5.6809 C   0  0  2  0  0  0  0  0  0  0  0  0
   28.3629    5.8517    5.2642 N   0  0  0  0  0  0  0  0  0  0  0  0
   29.5631    7.5087    6.5955 C   0  0  2  0  0  0  0  0  0  0  0  0
   30.9843    8.0133    7.0738 C   0  0  2  0  0  0  0  0  0  0  0  0
   30.7380    9.1814    7.9423 O   0  0  0  0  0  0  0  0  0  0  0  0
   31.8535    8.4264    5.7795 C   0  0  1  0  0  0  0  0  0  0  0  0
   33.0959    8.8745    6.2213 O   0  0  0  0  0  0  0  0  0  0  0  0
   30.2192   10.3102    7.5965 C   0  0  1  0  0  0  0  0  0  0  0  0
   31.1264   11.2335    6.7310 C   0  0  2  0  0  0  0  0  0  0  0  0
   31.8418   12.0651    7.5892 O   0  0  0  0  0  0  0  0  0  0  0  0
   30.0708   11.9696    6.0157 C   0  0  1  0  0  0  0  0  0  0  0  0
   28.9278   10.9661    5.6692 C   0  0  2  0  0  0  0  0  0  0  0  0
   28.9610   10.2080    6.8535 O   0  0  0  0  0  0  0  0  0  0  0  0
   29.0054   10.2128    4.3405 C   0  0  0  0  0  0  0  0  0  0  0  0
   29.0698   11.1999    3.3285 O   0  0  0  0  0  0  0  0  0  0  0  0
   28.6548   13.9185    6.4852 C   0  0  2  0  0  0  0  0  0  0  0  0
   29.6216   13.0656    6.9340 O   0  0  0  0  0  0  0  0  0  0  0  0
   28.4764   15.0981    7.3950 C   0  0  1  0  0  0  0  0  0  0  0  0
   23.5609   14.1926    5.3695 N   0  0  0  0  0  0  0  0  0  0  0  0
   33.5598    7.4954    0.9313 O   0  0  0  0  0  0  0  0  0  0  0  0
   27.3132   16.0117    6.8453 C   0  0  2  0  0  0  0  0  0  0  0  0
   25.9480   15.2589    6.6762 C   0  0  1  0  0  0  0  0  0  0  0  0
   26.1427   14.1353    5.7901 C   0  0  1  0  0  0  0  0  0  0  0  0
   27.2577   13.2403    6.2968 O   0  0  0  0  0  0  0  0  0  0  0  0
   24.7894   13.3144    5.6238 C   0  0  0  0  0  0  0  0  0  0  0  0
   28.1167   14.6620    8.6860 N   0  0  0  0  0  0  0  0  0  0  0  0
   25.9489    5.4494   10.0617 O   0  0  0  0  0  0  0  0  0  0  0  0
   35.4687    7.4642    2.1623 C   0  0  0  0  0  0  0  0  0  0  0  0
   25.6207   14.8687    7.7049 O   0  0  0  0  0  0  0  0  0  0  0  0
   27.6157   16.3871    5.8009 O   0  0  0  0  0  0  0  0  0  0  0  0
   33.6537    6.2690    3.0993 C   0  0  0  0  0  0  0  0  0  0  0  0
   36.3054    7.6475    1.0842 C   0  0  0  0  0  0  0  0  0  0  0  0
   34.4320    6.7301    1.7602 C   0  0  1  0  0  0  0  0  0  0  0  0
   24.8071    7.8359    9.7423 F   0  0  0  0  0  0  0  0  0  0  0  0
  1  2  1  6  0  0  0
  1 10  1  0  0  0  0
  1  3  1  0  0  0  0
  3  4  1  6  0  0  0
  3  6  1  0  0  0  0
  5 46  2  0  0  0  0
  6 42  1  1  0  0  0
  6  8  1  0  0  0  0
  7 47  1  0  0  0  0
  8  9  1  0  0  0  0
  8 49  1  1  0  0  0
  9 10  1  0  0  0  0
  9 11  1  1  0  0  0
 11 12  1  0  0  0  0
 13 14  1  6  0  0  0
 13 15  1  0  0  0  0
 13 21  1  0  0  0  0
 14 46  1  0  0  0  0
 15 16  1  0  0  0  0
 16 17  1  6  0  0  0
 16 18  1  0  0  0  0
 18  2  1  1  0  0  0
 18 19  1  0  0  0  0
 19 20  1  1  0  0  0
 19 21  1  0  0  0  0
 21 22  1  1  0  0  0
 23 20  1  6  0  0  0
 23 24  1  0  0  0  0
 23 28  1  0  0  0  0
 24 25  1  1  0  0  0
 24 26  1  0  0  0  0
 26 27  1  0  0  0  0
 26 32  1  1  0  0  0
 27 28  1  0  0  0  0
 27 29  1  6  0  0  0
 29 30  1  0  0  0  0
 31 32  1  1  0  0  0
 31 33  1  0  0  0  0
 31 39  1  0  0  0  0
 33 36  1  0  0  0  0
 33 41  1  1  0  0  0
 34 40  1  0  0  0  0
 35 48  1  0  0  0  0
 36 37  1  0  0  0  0
 36 45  1  6  0  0  0
 37 38  1  0  0  0  0
 37 44  1  1  0  0  0
 38 39  1  0  0  0  0
 38 40  1  1  0  0  0
 43 47  1  0  0  0  0
 46 48  1  0  0  0  0
 48 43  1  1  0  0  0
M  END
>  <CHROM.1>
-169.79405031,-173.38090584,-64.67120983,-91.59736697,-64.32528929,-72.52387181
178.65177405,-57.41403149,-169.87224691,46.10230619,172.47150329,-72.64452274
135.70600979,29.23959452,9.70911896,6.19723876,2.71904042,0.59701704,-0.21728052

>  <Name>
ligand

>  <RI>
0

>  <Rbt.Current_Directory>
/home/itssahil/PROJECTS/Mol_Feturizer/New_Systems/rnas/4PDQ

>  <Rbt.Executable>
rbdock ($Id: //depot/dev/client3/rdock/2013.1/src/exe/rbdock.cxx#4 $)

>  <Rbt.Library>
libRbt.so (2013.1, Build901 2013/11/27)

>  <Rbt.Parameter_File>
/export/apps/rDock/src/rDock_2013.1_src/data/scripts/dock_solv.prm

>  <Rbt.Receptor>
prm/pocket_docking_6.prm

>  <SCORE>
-16.2359

>  <SCORE.INTER>
-1.90951

>  <SCORE.INTER.CONST>
1

>  <SCORE.INTER.POLAR>
0

>  <SCORE.INTER.ROT>
13

>  <SCORE.INTER.SOLV>
21.9144

>  <SCORE.INTER.VDW>
-20.8445

>  <SCORE.INTER.norm>
-0.0389695

>  <SCORE.INTRA>
-14.3922

>  <SCORE.INTRA.DIHEDRAL>
-29.1101

>  <SCORE.INTRA.DIHEDRAL.0>
34.5115

>  <SCORE.INTRA.POLAR>
0

>  <SCORE.INTRA.POLAR.0>
0

>  <SCORE.INTRA.REPUL>
0.123771

>  <SCORE.INTRA.REPUL.0>
0

>  <SCORE.INTRA.SOLV>
-2.68201

>  <SCORE.INTRA.SOLV.lig_0>
-122.812

>  <SCORE.INTRA.VDW>
0.885023

>  <SCORE.INTRA.VDW.0>
-7.46208

>  <SCORE.INTRA.norm>
-0.293718

>  <SCORE.RESTR>
0.0657675

>  <SCORE.RESTR.CAVITY>
0.0657675

>  <SCORE.RESTR.norm>
0.00134219

>  <SCORE.SYSTEM>
0

>  <SCORE.SYSTEM.CONST>
0

>  <SCORE.SYSTEM.DIHEDRAL>
0

>  <SCORE.SYSTEM.SOLV>
0

>  <SCORE.SYSTEM.norm>
0

>  <SCORE.heavy>
49

>  <SCORE.norm>
-0.331346

>  <RMSD>
6.791

$$$$
ligand
 OpenBabel11021811513D
libRbt.so/2013.1/901 2013/11/27
 49 52  0  0  0  0  0  0  0  0999 V2000
   25.9029   13.9934    7.2256 C   0  0  2  0  0  0  0  0  0  0  0  0
   27.2916   13.8778    7.1244 O   0  0  0  0  0  0  0  0  0  0  0  0
   25.4187   15.2739    6.4491 C   0  0  2  0  0  0  0  0  0  0  0  0
   25.8362   15.1603    4.9913 N   0  0  0  0  0  0  0  0  0  0  0  0
   30.8466    9.6538    2.9860 O   0  0  0  0  0  0  0  0  0  0  0  0
   25.9957   16.5509    7.1034 C   0  0  2  0  0  0  0  0  0  0  0  0
   34.9618    8.7398    1.7513 N   0  0  0  0  0  0  0  0  0  0  0  0
   25.5773   16.6333    8.5798 C   0  0  2  0  0  0  0  0  0  0  0  0
   26.0474   15.3559    9.3964 C   0  0  2  0  0  0  0  0  0  0  0  0
   25.4992   14.1181    8.6838 O   0  0  0  0  0  0  0  0  0  0  0  0
   25.5722   15.4203   10.8769 C   0  0  0  0  0  0  0  0  0  0  0  0
   25.7229   14.1975   11.5812 N   0  0  0  0  0  0  0  0  0  0  0  0
   29.9788   10.9055    5.4668 C   0  0  2  0  0  0  0  0  0  0  0  0
   30.9678    9.7892    5.4160 N   0  0  0  0  0  0  0  0  0  0  0  0
   30.4953   11.9401    6.5800 C   0  0  0  0  0  0  0  0  0  0  0  0
   29.5171   13.1693    6.6828 C   0  0  2  0  0  0  0  0  0  0  0  0
   29.9689   14.1149    7.7141 N   0  0  0  0  0  0  0  0  0  0  0  0
   28.0983   12.6929    7.0529 C   0  0  2  0  0  0  0  0  0  0  0  0
   27.5600   11.6665    5.9760 C   0  0  2  0  0  0  0  0  0  0  0  0
   26.2042   11.2800    6.4139 O   0  0  0  0  0  0  0  0  0  0  0  0
   28.5429   10.3883    5.9372 C   0  0  1  0  0  0  0  0  0  0  0  0
   28.0484    9.4945    4.9905 O   0  0  0  0  0  0  0  0  0  0  0  0
   25.8986   10.4474    7.3499 C   0  0  1  0  0  0  0  0  0  0  0  0
   24.4840   10.6246    7.9760 C   0  0  2  0  0  0  0  0  0  0  0  0
   24.5978   11.4835    9.0666 O   0  0  0  0  0  0  0  0  0  0  0  0
   24.2568    9.2334    8.4014 C   0  0  1  0  0  0  0  0  0  0  0  0
   24.8262    8.2888    7.2983 C   0  0  2  0  0  0  0  0  0  0  0  0
   25.9709    9.0356    6.9663 O   0  0  0  0  0  0  0  0  0  0  0  0
   23.8979    7.8662    6.1587 C   0  0  0  0  0  0  0  0  0  0  0  0
   24.7174    7.2327    5.1944 O   0  0  0  0  0  0  0  0  0  0  0  0
   24.7035    7.9427   10.4405 C   0  0  2  0  0  0  0  0  0  0  0  0
   24.9542    9.0736    9.7184 O   0  0  0  0  0  0  0  0  0  0  0  0
   25.3437    7.9857   11.7967 C   0  0  1  0  0  0  0  0  0  0  0  0
   26.8758    4.1699    9.2089 N   0  0  0  0  0  0  0  0  0  0  0  0
   31.7738    6.8705    4.6539 O   0  0  0  0  0  0  0  0  0  0  0  0
   25.0571    6.6311   12.5538 C   0  0  2  0  0  0  0  0  0  0  0  0
   25.5441    5.3599   11.7756 C   0  0  1  0  0  0  0  0  0  0  0  0
   24.9078    5.3354   10.4794 C   0  0  1  0  0  0  0  0  0  0  0  0
   25.1682    6.6285    9.7303 O   0  0  0  0  0  0  0  0  0  0  0  0
   25.4077    4.0820    9.6355 C   0  0  0  0  0  0  0  0  0  0  0  0
   26.7400    8.1270   11.6672 N   0  0  0  0  0  0  0  0  0  0  0  0
   25.5978   17.4670    6.5477 O   0  0  0  0  0  0  0  0  0  0  0  0
   32.8780    7.8725    2.9403 C   0  0  0  0  0  0  0  0  0  0  0  0
   26.6801    5.4380   11.6306 O   0  0  0  0  0  0  0  0  0  0  0  0
   23.9187    6.5257   12.6806 O   0  0  0  0  0  0  0  0  0  0  0  0
   31.3105    9.2467    4.0606 C   0  0  0  0  0  0  0  0  0  0  0  0
   34.0492    8.5875    2.8268 C   0  0  0  0  0  0  0  0  0  0  0  0
   32.3989    8.0572    4.1698 C   0  0  1  0  0  0  0  0  0  0  0  0
   24.1774   16.7242    8.6765 F   0  0  0  0  0  0  0  0  0  0  0  0
  1  2  1  1  0  0  0
  1 10  1  0  0  0  0
  1  3  1  0  0  0  0
  3  4  1  6  0  0  0
  3  6  1  0  0  0  0
  5 46  2  0  0  0  0
  6 42  1  6  0  0  0
  6  8  1  0  0  0  0
  7 47  1  0  0  0  0
  8  9  1  0  0  0  0
  8 49  1  6  0  0  0
  9 10  1  0  0  0  0
  9 11  1  1  0  0  0
 11 12  1  0  0  0  0
 13 14  1  1  0  0  0
 13 15  1  0  0  0  0
 13 21  1  0  0  0  0
 14 46  1  0  0  0  0
 15 16  1  0  0  0  0
 16 17  1  1  0  0  0
 16 18  1  0  0  0  0
 18  2  1  6  0  0  0
 18 19  1  0  0  0  0
 19 20  1  1  0  0  0
 19 21  1  0  0  0  0
 21 22  1  6  0  0  0
 23 20  1  6  0  0  0
 23 24  1  0  0  0  0
 23 28  1  0  0  0  0
 24 25  1  1  0  0  0
 24 26  1  0  0  0  0
 26 27  1  0  0  0  0
 26 32  1  1  0  0  0
 27 28  1  0  0  0  0
 27 29  1  6  0  0  0
 29 30  1  0  0  0  0
 31 32  1  6  0  0  0
 31 33  1  0  0  0  0
 31 39  1  0  0  0  0
 33 36  1  0  0  0  0
 33 41  1  6  0  0  0
 34 40  1  0  0  0  0
 35 48  1  0  0  0  0
 36 37  1  0  0  0  0
 36 45  1  6  0  0  0
 37 38  1  0  0  0  0
 37 44  1  6  0  0  0
 38 39  1  0  0  0  0
 38 40  1  6  0  0  0
 43 47  1  0  0  0  0
 46 48  1  0  0  0  0
 48 43  1  6  0  0  0
M  END
>  <CHROM.1>
-146.22149382,169.40359177,167.88450483,-140.09596409,-77.69100503,157.09703198
168.81629818,169.54718838,-173.60098970,-68.43166216,179.71209286,-144.42851175
-105.97791823,27.10698429,10.43822508,7.60697085,0.86444965,0.74623120,-0.20167442

>  <Name>
ligand

>  <RI>
0

>  <Rbt.Current_Directory>
/home/itssahil/PROJECTS/Mol_Feturizer/New_Systems/rnas/4PDQ

>  <Rbt.Executable>
rbdock ($Id: //depot/dev/client3/rdock/2013.1/src/exe/rbdock.cxx#4 $)

>  <Rbt.Library>
libRbt.so (2013.1, Build901 2013/11/27)

>  <Rbt.Parameter_File>
/export/apps/rDock/src/rDock_2013.1_src/data/scripts/dock_solv.prm

>  <Rbt.Receptor>
prm/pocket_docking_7.prm

>  <SCORE>
-6.64031

>  <SCORE.INTER>
1.65775

>  <SCORE.INTER.CONST>
1

>  <SCORE.INTER.POLAR>
0

>  <SCORE.INTER.ROT>
13

>  <SCORE.INTER.SOLV>
13.5419

>  <SCORE.INTER.VDW>
-15.6755

>  <SCORE.INTER.norm>
0.0338316

>  <SCORE.INTRA>
-8.29806

>  <SCORE.INTRA.DIHEDRAL>
-18.6848

>  <SCORE.INTRA.DIHEDRAL.0>
34.5115

>  <SCORE.INTRA.POLAR>
0

>  <SCORE.INTRA.POLAR.0>
0

>  <SCORE.INTRA.REPUL>
0

>  <SCORE.INTRA.REPUL.0>
0

>  <SCORE.INTRA.SOLV>
-2.0518

>  <SCORE.INTRA.SOLV.lig_0>
-122.812

>  <SCORE.INTRA.VDW>
2.07024

>  <SCORE.INTRA.VDW.0>
-7.46208

>  <SCORE.INTRA.norm>
-0.169348

>  <SCORE.RESTR>
0

>  <SCORE.RESTR.CAVITY>
0

>  <SCORE.RESTR.norm>
0

>  <SCORE.SYSTEM>
0

>  <SCORE.SYSTEM.CONST>
0

>  <SCORE.SYSTEM.DIHEDRAL>
0

>  <SCORE.SYSTEM.SOLV>
0

>  <SCORE.SYSTEM.norm>
0

>  <SCORE.heavy>
49

>  <SCORE.norm>
-0.135517

>  <RMSD>
6.805

$$$$
ligand
 OpenBabel11021811513D
libRbt.so/2013.1/901 2013/11/27
 49 52  0  0  0  0  0  0  0  0999 V2000
   31.2273    9.6550    1.7020 C   0  0  2  0  0  0  0  0  0  0  0  0
   30.3754   10.6659    1.2498 O   0  0  0  0  0  0  0  0  0  0  0  0
   31.6050    9.9133    3.2079 C   0  0  2  0  0  0  0  0  0  0  0  0
   30.3338    9.9476    4.0418 N   0  0  0  0  0  0  0  0  0  0  0  0
   25.4286    9.4076   -1.4560 O   0  0  0  0  0  0  0  0  0  0  0  0
   32.4051   11.2297    3.3445 C   0  0  2  0  0  0  0  0  0  0  0  0
   24.7208   13.0331   -3.8117 N   0  0  0  0  0  0  0  0  0  0  0  0
   33.6735   11.1789    2.4783 C   0  0  2  0  0  0  0  0  0  0  0  0
   33.3321   10.9177    0.9503 C   0  0  2  0  0  0  0  0  0  0  0  0
   32.4972    9.6383    0.8703 O   0  0  0  0  0  0  0  0  0  0  0  0
   34.6236   10.8121    0.0886 C   0  0  0  0  0  0  0  0  0  0  0  0
   35.2869    9.5625    0.2003 N   0  0  0  0  0  0  0  0  0  0  0  0
   26.5780   11.8863   -0.4512 C   0  0  2  0  0  0  0  0  0  0  0  0
   25.3357   11.8360   -1.2765 N   0  0  0  0  0  0  0  0  0  0  0  0
   27.7922   11.4434   -1.4031 C   0  0  0  0  0  0  0  0  0  0  0  0
   29.1537   11.4922   -0.6143 C   0  0  2  0  0  0  0  0  0  0  0  0
   30.2718   11.0690   -1.4703 N   0  0  0  0  0  0  0  0  0  0  0  0
   29.0976   10.5521    0.6064 C   0  0  2  0  0  0  0  0  0  0  0  0
   27.9066   10.9593    1.5649 C   0  0  2  0  0  0  0  0  0  0  0  0
   27.9433   10.0118    2.6963 O   0  0  0  0  0  0  0  0  0  0  0  0
   26.5187   10.8380    0.7522 C   0  0  1  0  0  0  0  0  0  0  0  0
   25.4836   11.1923    1.6140 O   0  0  0  0  0  0  0  0  0  0  0  0
   27.6705   10.2658    3.9308 C   0  0  1  0  0  0  0  0  0  0  0  0
   26.8520   11.5653    4.1879 C   0  0  2  0  0  0  0  0  0  0  0  0
   27.7506   12.6098    4.3910 O   0  0  0  0  0  0  0  0  0  0  0  0
   26.1925   11.1643    5.4417 C   0  0  1  0  0  0  0  0  0  0  0  0
   25.7988    9.6594    5.3242 C   0  0  2  0  0  0  0  0  0  0  0  0
   26.9357    9.2086    4.6294 O   0  0  0  0  0  0  0  0  0  0  0  0
   24.4270    9.3143    4.7427 C   0  0  0  0  0  0  0  0  0  0  0  0
   24.4141    7.9104    4.5645 O   0  0  0  0  0  0  0  0  0  0  0  0
   26.7957   11.1421    7.8206 C   0  0  2  0  0  0  0  0  0  0  0  0
   27.1787   11.4217    6.5405 O   0  0  0  0  0  0  0  0  0  0  0  0
   27.9190   11.3249    8.7983 C   0  0  1  0  0  0  0  0  0  0  0  0
   26.2393    6.7715    9.0957 N   0  0  0  0  0  0  0  0  0  0  0  0
   22.5927    9.5819   -2.1832 O   0  0  0  0  0  0  0  0  0  0  0  0
   27.4220   10.9367   10.2448 C   0  0  2  0  0  0  0  0  0  0  0  0
   26.8603    9.4762   10.3466 C   0  0  1  0  0  0  0  0  0  0  0  0
   25.7757    9.3279    9.4047 C   0  0  1  0  0  0  0  0  0  0  0  0
   26.2281    9.6960    8.0044 O   0  0  0  0  0  0  0  0  0  0  0  0
   25.2024    7.8437    9.4425 C   0  0  0  0  0  0  0  0  0  0  0  0
   28.9935   10.4766    8.4631 N   0  0  0  0  0  0  0  0  0  0  0  0
   32.7021   11.3737    4.4388 O   0  0  0  0  0  0  0  0  0  0  0  0
   23.0172   11.8063   -2.3622 C   0  0  0  0  0  0  0  0  0  0  0  0
   27.6997    8.7457   10.0649 O   0  0  0  0  0  0  0  0  0  0  0  0
   26.5600   11.6434   10.5289 O   0  0  0  0  0  0  0  0  0  0  0  0
   24.8712   10.4817   -1.7226 C   0  0  0  0  0  0  0  0  0  0  0  0
   23.4286   12.6350   -3.3820 C   0  0  0  0  0  0  0  0  0  0  0  0
   23.5134   10.5912   -2.5920 C   0  0  1  0  0  0  0  0  0  0  0  0
   34.5155   10.1438    2.9221 F   0  0  0  0  0  0  0  0  0  0  0  0
  1  2  1  6  0  0  0
  1 10  1  0  0  0  0
  1  3  1  0  0  0  0
  3  4  1  1  0  0  0
  3  6  1  0  0  0  0
  5 46  2  0  0  0  0
  6 42  1  1  0  0  0
  6  8  1  0  0  0  0
  7 47  1  0  0  0  0
  8  9  1  0  0  0  0
  8 49  1  1  0  0  0
  9 10  1  0  0  0  0
  9 11  1  6  0  0  0
 11 12  1  0  0  0  0
 13 14  1  6  0  0  0
 13 15  1  0  0  0  0
 13 21  1  0  0  0  0
 14 46  1  0  0  0  0
 15 16  1  0  0  0  0
 16 17  1  6  0  0  0
 16 18  1  0  0  0  0
 18  2  1  1  0  0  0
 18 19  1  0  0  0  0
 19 20  1  1  0  0  0
 19 21  1  0  0  0  0
 21 22  1  1  0  0  0
 23 20  1  6  0  0  0
 23 24  1  0  0  0  0
 23 28  1  0  0  0  0
 24 25  1  1  0  0  0
 24 26  1  0  0  0  0
 26 27  1  0  0  0  0
 26 32  1  1  0  0  0
 27 28  1  0  0  0  0
 27 29  1  6  0  0  0
 29 30  1  0  0  0  0
 31 32  1  6  0  0  0
 31 33  1  0  0  0  0
 31 39  1  0  0  0  0
 33 36  1  0  0  0  0
 33 41  1  6  0  0  0
 34 40  1  0  0  0  0
 35 48  1  0  0  0  0
 36 37  1  0  0  0  0
 36 45  1  6  0  0  0
 37 38  1  0  0  0  0
 37 44  1  6  0  0  0
 38 39  1  0  0  0  0
 38 40  1  6  0  0  0
 43 47  1  0  0  0  0
 46 48  1  0  0  0  0
 48 43  1  1  0  0  0
M  END
>  <CHROM.1>
-127.31583564,-132.30138156,77.85323581,67.68903527,144.13543230,18.26623484
179.25962411,171.38616142,174.65228346,-59.83110570,-61.22501431,-144.23467077
43.05314827,27.96562896,10.47782045,3.20933258,-1.56548010,0.01097257,1.69923952

>  <Name>
ligand

>  <RI>
0

>  <Rbt.Current_Directory>
/home/itssahil/PROJECTS/Mol_Feturizer/New_Systems/rnas/4PDQ

>  <Rbt.Executable>
rbdock ($Id: //depot/dev/client3/rdock/2013.1/src/exe/rbdock.cxx#4 $)

>  <Rbt.Library>
libRbt.so (2013.1, Build901 2013/11/27)

>  <Rbt.Parameter_File>
/export/apps/rDock/src/rDock_2013.1_src/data/scripts/dock_solv.prm

>  <Rbt.Receptor>
prm/pocket_docking_2.prm

>  <SCORE>
7.39403

>  <SCORE.INTER>
-1.70574

>  <SCORE.INTER.CONST>
1

>  <SCORE.INTER.POLAR>
0

>  <SCORE.INTER.ROT>
13

>  <SCORE.INTER.SOLV>
15.8554

>  <SCORE.INTER.VDW>
-18.689

>  <SCORE.INTER.norm>
-0.0348111

>  <SCORE.INTRA>
6.88305

>  <SCORE.INTRA.DIHEDRAL>
-3.66486

>  <SCORE.INTRA.DIHEDRAL.0>
34.5115

>  <SCORE.INTRA.POLAR>
0

>  <SCORE.INTRA.POLAR.0>
0

>  <SCORE.INTRA.REPUL>
0.0566811

>  <SCORE.INTRA.REPUL.0>
0

>  <SCORE.INTRA.SOLV>
7.17955

>  <SCORE.INTRA.SOLV.lig_0>
-122.812

>  <SCORE.INTRA.VDW>
4.8423

>  <SCORE.INTRA.VDW.0>
-7.46208

>  <SCORE.INTRA.norm>
0.14047

>  <SCORE.RESTR>
2.21672

>  <SCORE.RESTR.CAVITY>
2.21672

>  <SCORE.RESTR.norm>
0.0452392

>  <SCORE.SYSTEM>
0

>  <SCORE.SYSTEM.CONST>
0

>  <SCORE.SYSTEM.DIHEDRAL>
0

>  <SCORE.SYSTEM.SOLV>
0

>  <SCORE.SYSTEM.norm>
0

>  <SCORE.heavy>
49

>  <SCORE.norm>
0.150899

>  <RMSD>
6.810

$$$$
ligand
 OpenBabel11021811513D
libRbt.so/2013.1/901 2013/11/27
 49 52  0  0  0  0  0  0  0  0999 V2000
   32.2315    8.6815    1.2262 C   0  0  2  0  0  0  0  0  0  0  0  0
   31.2206    9.0255    2.1271 O   0  0  0  0  0  0  0  0  0  0  0  0
   33.6374    8.8711    1.9080 C   0  0  2  0  0  0  0  0  0  0  0  0
   33.7121    7.9945    3.1483 N   0  0  0  0  0  0  0  0  0  0  0  0
   26.5111   12.3698   -1.5269 O   0  0  0  0  0  0  0  0  0  0  0  0
   33.8717   10.3601    2.2544 C   0  0  2  0  0  0  0  0  0  0  0  0
   21.9403    9.5247   -3.5674 N   0  0  0  0  0  0  0  0  0  0  0  0
   33.7716   11.2273    0.9897 C   0  0  2  0  0  0  0  0  0  0  0  0
   32.3655   11.0609    0.2721 C   0  0  2  0  0  0  0  0  0  0  0  0
   32.1544    9.5707   -0.0019 O   0  0  0  0  0  0  0  0  0  0  0  0
   32.2921   11.8987   -1.0371 C   0  0  0  0  0  0  0  0  0  0  0  0
   31.0995   11.6984   -1.7799 N   0  0  0  0  0  0  0  0  0  0  0  0
   27.6430   10.1217   -0.0642 C   0  0  2  0  0  0  0  0  0  0  0  0
   26.1967   10.2229   -0.4178 N   0  0  0  0  0  0  0  0  0  0  0  0
   27.9268    8.5886    0.3173 C   0  0  0  0  0  0  0  0  0  0  0  0
   29.4447    8.3860    0.6824 C   0  0  2  0  0  0  0  0  0  0  0  0
   29.7134    6.9888    1.0535 N   0  0  0  0  0  0  0  0  0  0  0  0
   29.8320    9.2850    1.8735 C   0  0  2  0  0  0  0  0  0  0  0  0
   29.5602   10.8055    1.5313 C   0  0  2  0  0  0  0  0  0  0  0  0
   29.9672   11.5770    2.7224 O   0  0  0  0  0  0  0  0  0  0  0  0
   27.9883   10.9980    1.2256 C   0  0  1  0  0  0  0  0  0  0  0  0
   27.7684   12.3422    0.9349 O   0  0  0  0  0  0  0  0  0  0  0  0
   29.6113   11.3650    3.9435 C   0  0  1  0  0  0  0  0  0  0  0  0
   30.3298   12.2346    5.0169 C   0  0  2  0  0  0  0  0  0  0  0  0
   31.4597   11.5438    5.4482 O   0  0  0  0  0  0  0  0  0  0  0  0
   29.2713   12.2380    6.0405 C   0  0  1  0  0  0  0  0  0  0  0  0
   27.8949   12.3565    5.3159 C   0  0  2  0  0  0  0  0  0  0  0  0
   28.1810   11.5394    4.2073 O   0  0  0  0  0  0  0  0  0  0  0  0
   27.3393   13.7551    5.0436 C   0  0  0  0  0  0  0  0  0  0  0  0
   27.1148   14.3457    6.3099 O   0  0  0  0  0  0  0  0  0  0  0  0
   28.7429   10.8380    7.9858 C   0  0  2  0  0  0  0  0  0  0  0  0
   29.4162   10.9566    6.8042 O   0  0  0  0  0  0  0  0  0  0  0  0
   28.9140    9.4792    8.5987 C   0  0  1  0  0  0  0  0  0  0  0  0
   24.6174   12.8087    8.4933 N   0  0  0  0  0  0  0  0  0  0  0  0
   23.7358   12.6924   -1.9050 O   0  0  0  0  0  0  0  0  0  0  0  0
   28.0709    9.3960    9.9301 C   0  0  2  0  0  0  0  0  0  0  0  0
   26.5460    9.7011    9.7296 C   0  0  1  0  0  0  0  0  0  0  0  0
   26.4068   11.0159    9.1485 C   0  0  1  0  0  0  0  0  0  0  0  0
   27.2093   11.1223    7.8656 O   0  0  0  0  0  0  0  0  0  0  0  0
   24.8732   11.3509    8.8862 C   0  0  0  0  0  0  0  0  0  0  0  0
   28.4374    8.4884    7.7169 N   0  0  0  0  0  0  0  0  0  0  0  0
   34.9133   10.4775    2.7099 O   0  0  0  0  0  0  0  0  0  0  0  0
   24.0192   10.5089   -2.4637 C   0  0  0  0  0  0  0  0  0  0  0  0
   26.1148    8.9254    9.0016 O   0  0  0  0  0  0  0  0  0  0  0  0
   28.4741   10.1889   10.6594 O   0  0  0  0  0  0  0  0  0  0  0  0
   25.7657   11.4461   -1.1707 C   0  0  0  0  0  0  0  0  0  0  0  0
   22.6688   10.2904   -2.6209 C   0  0  0  0  0  0  0  0  0  0  0  0
   24.1821   11.4033   -1.4896 C   0  0  1  0  0  0  0  0  0  0  0  0
   34.7757   10.8598    0.0763 F   0  0  0  0  0  0  0  0  0  0  0  0
  1  2  1  1  0  0  0
  1 10  1  0  0  0  0
  1  3  1  0  0  0  0
  3  4  1  1  0  0  0
  3  6  1  0  0  0  0
  5 46  2  0  0  0  0
  6 42  1  6  0  0  0
  6  8  1  0  0  0  0
  7 47  1  0  0  0  0
  8  9  1  0  0  0  0
  8 49  1  6  0  0  0
  9 10  1  0  0  0  0
  9 11  1  6  0  0  0
 11 12  1  0  0  0  0
 13 14  1  1  0  0  0
 13 15  1  0  0  0  0
 13 21  1  0  0  0  0
 14 46  1  0  0  0  0
 15 16  1  0  0  0  0
 16 17  1  1  0  0  0
 16 18  1  0  0  0  0
 18  2  1  6  0  0  0
 18 19  1  0  0  0  0
 19 20  1  1  0  0  0
 19 21  1  0  0  0  0
 21 22  1  6  0  0  0
 23 20  1  6  0  0  0
 23 24  1  0  0  0  0
 23 28  1  0  0  0  0
 24 25  1  1  0  0  0
 24 26  1  0  0  0  0
 26 27  1  0  0  0  0
 26 32  1  6  0  0  0
 27 28  1  0  0  0  0
 27 29  1  6  0  0  0
 29 30  1  0  0  0  0
 31 32  1  6  0  0  0
 31 33  1  0  0  0  0
 31 39  1  0  0  0  0
 33 36  1  0  0  0  0
 33 41  1  6  0  0  0
 34 40  1  0  0  0  0
 35 48  1  0  0  0  0
 36 37  1  0  0  0  0
 36 45  1  1  0  0  0
 37 38  1  0  0  0  0
 37 44  1  6  0  0  0
 38 39  1  0  0  0  0
 38 40  1  6  0  0  0
 43 47  1  0  0  0  0
 46 48  1  0  0  0  0
 48 43  1  6  0  0  0
M  END
>  <CHROM.1>
165.16340415,32.01482598,174.89480681,-163.33325010,-50.82933708,173.01285182
166.32631447,-63.59475795,176.61235120,170.25661509,174.58087277,-69.79525213
-14.95371894,28.80832416,10.69705909,3.12961981,-1.51057104,-0.13084876,1.55838349

>  <Name>
ligand

>  <RI>
0

>  <Rbt.Current_Directory>
/home/itssahil/PROJECTS/Mol_Feturizer/New_Systems/rnas/4PDQ

>  <Rbt.Executable>
rbdock ($Id: //depot/dev/client3/rdock/2013.1/src/exe/rbdock.cxx#4 $)

>  <Rbt.Library>
libRbt.so (2013.1, Build901 2013/11/27)

>  <Rbt.Parameter_File>
/export/apps/rDock/src/rDock_2013.1_src/data/scripts/dock_solv.prm

>  <Rbt.Receptor>
prm/pocket_docking_4.prm

>  <SCORE>
-12.1284

>  <SCORE.INTER>
0.0558669

>  <SCORE.INTER.CONST>
1

>  <SCORE.INTER.POLAR>
0

>  <SCORE.INTER.ROT>
13

>  <SCORE.INTER.SOLV>
22.7343

>  <SCORE.INTER.VDW>
-19.8075

>  <SCORE.INTER.norm>
0.00114014

>  <SCORE.INTRA>
-12.1842

>  <SCORE.INTRA.DIHEDRAL>
-26.4068

>  <SCORE.INTRA.DIHEDRAL.0>
34.5115

>  <SCORE.INTRA.POLAR>
0

>  <SCORE.INTRA.POLAR.0>
0

>  <SCORE.INTRA.REPUL>
0

>  <SCORE.INTRA.REPUL.0>
0

>  <SCORE.INTRA.SOLV>
-1.97482

>  <SCORE.INTRA.SOLV.lig_0>
-122.812

>  <SCORE.INTRA.VDW>
2.00659

>  <SCORE.INTRA.VDW.0>
-7.46208

>  <SCORE.INTRA.norm>
-0.248658

>  <SCORE.RESTR>
0

>  <SCORE.RESTR.CAVITY>
0

>  <SCORE.RESTR.norm>
0

>  <SCORE.SYSTEM>
0

>  <SCORE.SYSTEM.CONST>
0

>  <SCORE.SYSTEM.DIHEDRAL>
0

>  <SCORE.SYSTEM.SOLV>
0

>  <SCORE.SYSTEM.norm>
0

>  <SCORE.heavy>
49

>  <SCORE.norm>
-0.247518

>  <RMSD>
6.830

$$$$
ligand
 OpenBabel11021811513D
libRbt.so/2013.1/901 2013/11/27
 49 52  0  0  0  0  0  0  0  0999 V2000
   33.6048   11.2921    1.6336 C   0  0  2  0  0  0  0  0  0  0  0  0
   32.7524   10.2131    1.8809 O   0  0  0  0  0  0  0  0  0  0  0  0
   33.6164   11.6175    0.0938 C   0  0  2  0  0  0  0  0  0  0  0  0
   32.2017   11.9458   -0.3569 N   0  0  0  0  0  0  0  0  0  0  0  0
   27.3433    8.5786    0.9284 O   0  0  0  0  0  0  0  0  0  0  0  0
   34.2011   10.4284   -0.7037 C   0  0  2  0  0  0  0  0  0  0  0  0
   25.4609    7.6868    2.1830 N   0  0  0  0  0  0  0  0  0  0  0  0
   35.6221   10.1031   -0.2173 C   0  0  2  0  0  0  0  0  0  0  0  0
   35.6508    9.7708    1.3346 C   0  0  2  0  0  0  0  0  0  0  0  0
   35.0158   10.9485    2.0763 O   0  0  0  0  0  0  0  0  0  0  0  0
   37.0999    9.4970    1.8313 C   0  0  0  0  0  0  0  0  0  0  0  0
   37.9475   10.6342    1.7820 N   0  0  0  0  0  0  0  0  0  0  0  0
   28.9186   10.8220   -0.0516 C   0  0  2  0  0  0  0  0  0  0  0  0
   27.5000   10.5830   -0.4485 N   0  0  0  0  0  0  0  0  0  0  0  0
   29.6876    9.4200   -0.1911 C   0  0  0  0  0  0  0  0  0  0  0  0
   31.2065    9.5872    0.1871 C   0  0  2  0  0  0  0  0  0  0  0  0
   31.9179    8.3047    0.0826 N   0  0  0  0  0  0  0  0  0  0  0  0
   31.3430   10.0984    1.6352 C   0  0  2  0  0  0  0  0  0  0  0  0
   30.5910   11.4795    1.8084 C   0  0  2  0  0  0  0  0  0  0  0  0
   30.7864   11.8838    3.2147 O   0  0  0  0  0  0  0  0  0  0  0  0
   29.0267   11.2662    1.4786 C   0  0  1  0  0  0  0  0  0  0  0  0
   28.3818   12.4895    1.6441 O   0  0  0  0  0  0  0  0  0  0  0  0
   30.1853   11.4056    4.2505 C   0  0  1  0  0  0  0  0  0  0  0  0
   29.0087   12.2622    4.8039 C   0  0  2  0  0  0  0  0  0  0  0  0
   29.5204   13.1319    5.7639 O   0  0  0  0  0  0  0  0  0  0  0  0
   28.2193   11.1805    5.4162 C   0  0  1  0  0  0  0  0  0  0  0  0
   28.2860    9.9378    4.4757 C   0  0  2  0  0  0  0  0  0  0  0  0
   29.6282   10.0624    4.0740 O   0  0  0  0  0  0  0  0  0  0  0  0
   27.2262    9.8015    3.3815 C   0  0  0  0  0  0  0  0  0  0  0  0
   26.7201   11.1037    3.1557 O   0  0  0  0  0  0  0  0  0  0  0  0
   27.9820   10.6852    7.8082 C   0  0  2  0  0  0  0  0  0  0  0  0
   28.8262   10.9226    6.7621 O   0  0  0  0  0  0  0  0  0  0  0  0
   28.6215   10.9922    9.1303 C   0  0  1  0  0  0  0  0  0  0  0  0
   25.0140    6.9883   10.0115 N   0  0  0  0  0  0  0  0  0  0  0  0
   25.0480    7.9524   -0.8712 O   0  0  0  0  0  0  0  0  0  0  0  0
   27.6115   10.6478   10.2927 C   0  0  2  0  0  0  0  0  0  0  0  0
   27.1145    9.1606   10.2746 C   0  0  1  0  0  0  0  0  0  0  0  0
   26.4949    8.8924    8.9980 C   0  0  1  0  0  0  0  0  0  0  0  0
   27.4467    9.2162    7.8621 O   0  0  0  0  0  0  0  0  0  0  0  0
   26.0134    7.3775    8.9184 C   0  0  0  0  0  0  0  0  0  0  0  0
   29.7745   10.2006    9.3042 N   0  0  0  0  0  0  0  0  0  0  0  0
   34.2367   10.7045   -1.8123 O   0  0  0  0  0  0  0  0  0  0  0  0
   24.5250    9.5252    0.6821 C   0  0  0  0  0  0  0  0  0  0  0  0
   28.0258    8.4735   10.3973 O   0  0  0  0  0  0  0  0  0  0  0  0
   26.6795   11.3098   10.1652 O   0  0  0  0  0  0  0  0  0  0  0  0
   26.8239    9.3803    0.1390 C   0  0  0  0  0  0  0  0  0  0  0  0
   24.4645    8.3881    1.4562 C   0  0  0  0  0  0  0  0  0  0  0  0
   25.2956    9.2655   -0.3735 C   0  0  1  0  0  0  0  0  0  0  0  0
   36.4698   11.2015   -0.4457 F   0  0  0  0  0  0  0  0  0  0  0  0
  1  2  1  6  0  0  0
  1 10  1  0  0  0  0
  1  3  1  0  0  0  0
  3  4  1  6  0  0  0
  3  6  1  0  0  0  0
  5 46  2  0  0  0  0
  6 42  1  6  0  0  0
  6  8  1  0  0  0  0
  7 47  1  0  0  0  0
  8  9  1  0  0  0  0
  8 49  1  1  0  0  0
  9 10  1  0  0  0  0
  9 11  1  1  0  0  0
 11 12  1  0  0  0  0
 13 14  1  1  0  0  0
 13 15  1  0  0  0  0
 13 21  1  0  0  0  0
 14 46  1  0  0  0  0
 15 16  1  0  0  0  0
 16 17  1  1  0  0  0
 16 18  1  0  0  0  0
 18  2  1  6  0  0  0
 18 19  1  0  0  0  0
 19 20  1  1  0  0  0
 19 21  1  0  0  0  0
 21 22  1  6  0  0  0
 23 20  1  6  0  0  0
 23 24  1  0  0  0  0
 23 28  1  0  0  0  0
 24 25  1  1  0  0  0
 24 26  1  0  0  0  0
 26 27  1  0  0  0  0
 26 32  1  1  0  0  0
 27 28  1  0  0  0  0
 27 29  1  6  0  0  0
 29 30  1  0  0  0  0
 31 32  1  6  0  0  0
 31 33  1  0  0  0  0
 31 39  1  0  0  0  0
 33 36  1  0  0  0  0
 33 41  1  1  0  0  0
 34 40  1  0  0  0  0
 35 48  1  0  0  0  0
 36 37  1  0  0  0  0
 36 45  1  6  0  0  0
 37 38  1  0  0  0  0
 37 44  1  6  0  0  0
 38 39  1  0  0  0  0
 38 40  1  1  0  0  0
 43 47  1  0  0  0  0
 46 48  1  0  0  0  0
 48 43  1  1  0  0  0
M  END
>  <CHROM.1>
-60.80263289,87.77005314,66.55552273,46.86797766,-76.18070360,-100.25826692
139.60898002,21.98161080,-156.79820142,58.67807971,64.74445357,39.86742816
-51.43526630,29.72557629,10.19182991,3.38233752,-0.83096414,0.18049666,1.53975585

>  <Name>
ligand

>  <RI>
0

>  <Rbt.Current_Directory>
/home/itssahil/PROJECTS/Mol_Feturizer/New_Systems/rnas/4PDQ

>  <Rbt.Executable>
rbdock ($Id: //depot/dev/client3/rdock/2013.1/src/exe/rbdock.cxx#4 $)

>  <Rbt.Library>
libRbt.so (2013.1, Build901 2013/11/27)

>  <Rbt.Parameter_File>
/export/apps/rDock/src/rDock_2013.1_src/data/scripts/dock_solv.prm

>  <Rbt.Receptor>
prm/pocket_docking_2.prm

>  <SCORE>
19.2754

>  <SCORE.INTER>
3.88681

>  <SCORE.INTER.CONST>
1

>  <SCORE.INTER.POLAR>
0

>  <SCORE.INTER.ROT>
13

>  <SCORE.INTER.SOLV>
19.0496

>  <SCORE.INTER.VDW>
-16.0253

>  <SCORE.INTER.norm>
0.0793227

>  <SCORE.INTRA>
13.1135

>  <SCORE.INTRA.DIHEDRAL>
-9.06951

>  <SCORE.INTRA.DIHEDRAL.0>
34.5115

>  <SCORE.INTRA.POLAR>
0

>  <SCORE.INTRA.POLAR.0>
0

>  <SCORE.INTRA.REPUL>
0

>  <SCORE.INTRA.REPUL.0>
0

>  <SCORE.INTRA.SOLV>
13.1804

>  <SCORE.INTRA.SOLV.lig_0>
-122.812

>  <SCORE.INTRA.VDW>
11.0581

>  <SCORE.INTRA.VDW.0>
-7.46208

>  <SCORE.INTRA.norm>
0.267623

>  <SCORE.RESTR>
2.27501

>  <SCORE.RESTR.CAVITY>
2.27501

>  <SCORE.RESTR.norm>
0.0464287

>  <SCORE.SYSTEM>
0

>  <SCORE.SYSTEM.CONST>
0

>  <SCORE.SYSTEM.DIHEDRAL>
0

>  <SCORE.SYSTEM.SOLV>
0

>  <SCORE.SYSTEM.norm>
0

>  <SCORE.heavy>
49

>  <SCORE.norm>
0.393375

>  <RMSD>
6.842

$$$$
ligand
 OpenBabel11021811513D
libRbt.so/2013.1/901 2013/11/27
 49 52  0  0  0  0  0  0  0  0999 V2000
   31.2792    9.8969    2.4821 C   0  0  2  0  0  0  0  0  0  0  0  0
   30.4323   10.8121    1.8519 O   0  0  0  0  0  0  0  0  0  0  0  0
   32.4381   10.6661    3.2187 C   0  0  2  0  0  0  0  0  0  0  0  0
   31.8344   11.6188    4.2387 N   0  0  0  0  0  0  0  0  0  0  0  0
   25.8199   13.2925   -1.9859 O   0  0  0  0  0  0  0  0  0  0  0  0
   33.3199   11.4194    2.1956 C   0  0  2  0  0  0  0  0  0  0  0  0
   23.3931    8.6813   -1.5239 N   0  0  0  0  0  0  0  0  0  0  0  0
   33.9019   10.4395    1.1648 C   0  0  2  0  0  0  0  0  0  0  0  0
   32.7610    9.6424    0.4015 C   0  0  2  0  0  0  0  0  0  0  0  0
   31.8849    8.9592    1.4532 O   0  0  0  0  0  0  0  0  0  0  0  0
   33.3589    8.6128   -0.6005 C   0  0  0  0  0  0  0  0  0  0  0  0
   34.3672    7.7862   -0.0401 N   0  0  0  0  0  0  0  0  0  0  0  0
   26.4559   11.7177    0.3784 C   0  0  2  0  0  0  0  0  0  0  0  0
   25.1809   11.5718   -0.3832 N   0  0  0  0  0  0  0  0  0  0  0  0
   27.6524   11.4058   -0.6451 C   0  0  0  0  0  0  0  0  0  0  0  0
   29.0442   11.5617    0.0739 C   0  0  2  0  0  0  0  0  0  0  0  0
   30.1484   11.2587   -0.8485 N   0  0  0  0  0  0  0  0  0  0  0  0
   29.1373   10.5961    1.2722 C   0  0  2  0  0  0  0  0  0  0  0  0
   27.9674   10.8744    2.3002 C   0  0  2  0  0  0  0  0  0  0  0  0
   28.1488    9.9115    3.4044 O   0  0  0  0  0  0  0  0  0  0  0  0
   26.5546   10.6443    1.5569 C   0  0  1  0  0  0  0  0  0  0  0  0
   25.5393   10.8862    2.4791 O   0  0  0  0  0  0  0  0  0  0  0  0
   27.8441   10.0868    4.6451 C   0  0  1  0  0  0  0  0  0  0  0  0
   26.7441   11.1524    4.9263 C   0  0  2  0  0  0  0  0  0  0  0  0
   27.3714   12.3799    5.1253 O   0  0  0  0  0  0  0  0  0  0  0  0
   26.2202   10.5992    6.1863 C   0  0  1  0  0  0  0  0  0  0  0  0
   26.1943    9.0445    6.0610 C   0  0  2  0  0  0  0  0  0  0  0  0
   27.3940    8.8813    5.3450 O   0  0  0  0  0  0  0  0  0  0  0  0
   24.9347    8.3855    5.4971 C   0  0  0  0  0  0  0  0  0  0  0  0
   24.0205    8.2927    6.5734 O   0  0  0  0  0  0  0  0  0  0  0  0
   26.7362   10.9043    8.5662 C   0  0  2  0  0  0  0  0  0  0  0  0
   27.1351   11.0784    7.2724 O   0  0  0  0  0  0  0  0  0  0  0  0
   27.8589   11.1238    9.5371 C   0  0  1  0  0  0  0  0  0  0  0  0
   25.9884    6.6623    9.9858 N   0  0  0  0  0  0  0  0  0  0  0  0
   23.4021   13.0783   -3.3898 O   0  0  0  0  0  0  0  0  0  0  0  0
   27.3417   10.8569   11.0039 C   0  0  2  0  0  0  0  0  0  0  0  0
   26.7352    9.4252   11.2067 C   0  0  1  0  0  0  0  0  0  0  0  0
   25.6521    9.2415   10.2693 C   0  0  1  0  0  0  0  0  0  0  0  0
   26.1237    9.4930    8.8497 O   0  0  0  0  0  0  0  0  0  0  0  0
   25.0335    7.7818   10.4099 C   0  0  0  0  0  0  0  0  0  0  0  0
   28.9089   10.2216    9.2730 N   0  0  0  0  0  0  0  0  0  0  0  0
   34.1761   11.9353    2.7498 O   0  0  0  0  0  0  0  0  0  0  0  0
   23.6264   10.9151   -2.7338 C   0  0  0  0  0  0  0  0  0  0  0  0
   27.5535    8.6513   10.9854 O   0  0  0  0  0  0  0  0  0  0  0  0
   26.5001   11.6079   11.2291 O   0  0  0  0  0  0  0  0  0  0  0  0
   24.9985   12.4588   -1.5785 C   0  0  0  0  0  0  0  0  0  0  0  0
   23.3153   10.0896   -1.6766 C   0  0  0  0  0  0  0  0  0  0  0  0
   23.5815   12.1746   -2.3014 C   0  0  1  0  0  0  0  0  0  0  0  0
   34.7335    9.5056    1.8079 F   0  0  0  0  0  0  0  0  0  0  0  0
  1  2  1  6  0  0  0
  1 10  1  0  0  0  0
  1  3  1  0  0  0  0
  3  4  1  1  0  0  0
  3  6  1  0  0  0  0
  5 46  2  0  0  0  0
  6 42  1  1  0  0  0
  6  8  1  0  0  0  0
  7 47  1  0  0  0  0
  8  9  1  0  0  0  0
  8 49  1  1  0  0  0
  9 10  1  0  0  0  0
  9 11  1  6  0  0  0
 11 12  1  0  0  0  0
 13 14  1  6  0  0  0
 13 15  1  0  0  0  0
 13 21  1  0  0  0  0
 14 46  1  0  0  0  0
 15 16  1  0  0  0  0
 16 17  1  6  0  0  0
 16 18  1  0  0  0  0
 18  2  1  1  0  0  0
 18 19  1  0  0  0  0
 19 20  1  1  0  0  0
 19 21  1  0  0  0  0
 21 22  1  1  0  0  0
 23 20  1  6  0  0  0
 23 24  1  0  0  0  0
 23 28  1  0  0  0  0
 24 25  1  1  0  0  0
 24 26  1  0  0  0  0
 26 27  1  0  0  0  0
 26 32  1  1  0  0  0
 27 28  1  0  0  0  0
 27 29  1  6  0  0  0
 29 30  1  0  0  0  0
 31 32  1  6  0  0  0
 31 33  1  0  0  0  0
 31 39  1  0  0  0  0
 33 36  1  0  0  0  0
 33 41  1  6  0  0  0
 34 40  1  0  0  0  0
 35 48  1  0  0  0  0
 36 37  1  0  0  0  0
 36 45  1  6  0  0  0
 37 38  1  0  0  0  0
 37 44  1  6  0  0  0
 38 39  1  0  0  0  0
 38 40  1  6  0  0  0
 43 47  1  0  0  0  0
 46 48  1  0  0  0  0
 48 43  1  6  0  0  0
M  END
>  <CHROM.1>
-167.85525983,-146.80231911,49.24073063,-59.31759074,148.71476744,23.63302606
168.46860662,-82.02765165,166.56082766,-66.87159584,-170.04101231,-158.59873839
-3.98874527,28.00168285,10.36580428,3.65358484,-1.40496387,-0.06625202,1.71669405

>  <Name>
ligand

>  <RI>
0

>  <Rbt.Current_Directory>
/home/itssahil/PROJECTS/Mol_Feturizer/New_Systems/rnas/4PDQ

>  <Rbt.Executable>
rbdock ($Id: //depot/dev/client3/rdock/2013.1/src/exe/rbdock.cxx#4 $)

>  <Rbt.Library>
libRbt.so (2013.1, Build901 2013/11/27)

>  <Rbt.Parameter_File>
/export/apps/rDock/src/rDock_2013.1_src/data/scripts/dock_solv.prm

>  <Rbt.Receptor>
prm/pocket_docking_2.prm

>  <SCORE>
-0.944929

>  <SCORE.INTER>
0.0857874

>  <SCORE.INTER.CONST>
1

>  <SCORE.INTER.POLAR>
0

>  <SCORE.INTER.ROT>
13

>  <SCORE.INTER.SOLV>
22.0578

>  <SCORE.INTER.VDW>
-19.5621

>  <SCORE.INTER.norm>
0.00175076

>  <SCORE.INTRA>
-2.53138

>  <SCORE.INTRA.DIHEDRAL>
-14.666

>  <SCORE.INTRA.DIHEDRAL.0>
34.5115

>  <SCORE.INTRA.POLAR>
0

>  <SCORE.INTRA.POLAR.0>
0

>  <SCORE.INTRA.REPUL>
0

>  <SCORE.INTRA.REPUL.0>
0

>  <SCORE.INTRA.SOLV>
1.90579

>  <SCORE.INTRA.SOLV.lig_0>
-122.812

>  <SCORE.INTRA.VDW>
3.84871

>  <SCORE.INTRA.VDW.0>
-7.46208

>  <SCORE.INTRA.norm>
-0.0516608

>  <SCORE.RESTR>
1.50066

>  <SCORE.RESTR.CAVITY>
1.50066

>  <SCORE.RESTR.norm>
0.0306257

>  <SCORE.SYSTEM>
0

>  <SCORE.SYSTEM.CONST>
0

>  <SCORE.SYSTEM.DIHEDRAL>
0

>  <SCORE.SYSTEM.SOLV>
0

>  <SCORE.SYSTEM.norm>
0

>  <SCORE.heavy>
49

>  <SCORE.norm>
-0.0192843

>  <RMSD>
6.850

$$$$
ligand
 OpenBabel11021811513D
libRbt.so/2013.1/901 2013/11/27
 49 52  0  0  0  0  0  0  0  0999 V2000
   31.8590    9.9914    2.0748 C   0  0  2  0  0  0  0  0  0  0  0  0
   31.1075   10.7781    1.1983 O   0  0  0  0  0  0  0  0  0  0  0  0
   33.0812   10.8211    2.6178 C   0  0  2  0  0  0  0  0  0  0  0  0
   32.5647   12.0617    3.3295 N   0  0  0  0  0  0  0  0  0  0  0  0
   26.0253    8.9851   -0.9407 O   0  0  0  0  0  0  0  0  0  0  0  0
   34.0377   11.1916    1.4603 C   0  0  2  0  0  0  0  0  0  0  0  0
   23.4789   13.3568   -3.0968 N   0  0  0  0  0  0  0  0  0  0  0  0
   34.5301    9.9240    0.7447 C   0  0  2  0  0  0  0  0  0  0  0  0
   33.3233    9.0587    0.1839 C   0  0  2  0  0  0  0  0  0  0  0  0
   32.3791    8.7627    1.3506 O   0  0  0  0  0  0  0  0  0  0  0  0
   33.8266    7.7496   -0.4904 C   0  0  0  0  0  0  0  0  0  0  0  0
   34.8004    7.9626   -1.5005 N   0  0  0  0  0  0  0  0  0  0  0  0
   27.1105   11.6013   -0.2679 C   0  0  2  0  0  0  0  0  0  0  0  0
   25.8246   11.4129   -1.0014 N   0  0  0  0  0  0  0  0  0  0  0  0
   28.2921   11.2293   -1.2887 C   0  0  0  0  0  0  0  0  0  0  0  0
   29.6941   11.4250   -0.6001 C   0  0  2  0  0  0  0  0  0  0  0  0
   30.7848   11.0679   -1.5191 N   0  0  0  0  0  0  0  0  0  0  0  0
   29.8042   10.5303    0.6507 C   0  0  2  0  0  0  0  0  0  0  0  0
   28.6493   10.8691    1.6775 C   0  0  2  0  0  0  0  0  0  0  0  0
   28.8464    9.9715    2.8330 O   0  0  0  0  0  0  0  0  0  0  0  0
   27.2259   10.5979    0.9692 C   0  0  1  0  0  0  0  0  0  0  0  0
   26.2241   10.8938    1.8904 O   0  0  0  0  0  0  0  0  0  0  0  0
   28.4669   10.1760    4.0483 C   0  0  1  0  0  0  0  0  0  0  0  0
   27.8985   11.5941    4.3488 C   0  0  2  0  0  0  0  0  0  0  0  0
   28.9527   12.4038    4.7647 O   0  0  0  0  0  0  0  0  0  0  0  0
   27.0099   11.2413    5.4685 C   0  0  1  0  0  0  0  0  0  0  0  0
   26.3420    9.8691    5.1452 C   0  0  2  0  0  0  0  0  0  0  0  0
   27.4482    9.2455    4.5403 O   0  0  0  0  0  0  0  0  0  0  0  0
   25.0196    9.8719    4.3770 C   0  0  0  0  0  0  0  0  0  0  0  0
   24.1109   10.6278    5.1552 O   0  0  0  0  0  0  0  0  0  0  0  0
   27.2560   11.0196    7.9003 C   0  0  2  0  0  0  0  0  0  0  0  0
   27.8712   11.1926    6.6941 O   0  0  0  0  0  0  0  0  0  0  0  0
   28.2411   10.9296    9.0284 C   0  0  1  0  0  0  0  0  0  0  0  0
   25.4970    6.9122    9.0145 N   0  0  0  0  0  0  0  0  0  0  0  0
   23.1869    8.8931   -1.5667 O   0  0  0  0  0  0  0  0  0  0  0  0
   27.4668   10.6795   10.3805 C   0  0  2  0  0  0  0  0  0  0  0  0
   26.5625    9.3986   10.3603 C   0  0  1  0  0  0  0  0  0  0  0  0
   25.6177    9.5129    9.2741 C   0  0  1  0  0  0  0  0  0  0  0  0
   26.3378    9.7545    7.9610 O   0  0  0  0  0  0  0  0  0  0  0  0
   24.7055    8.2116    9.1883 C   0  0  0  0  0  0  0  0  0  0  0  0
   29.1167    9.8452    8.8192 N   0  0  0  0  0  0  0  0  0  0  0  0
   34.9356   11.7570    1.8850 O   0  0  0  0  0  0  0  0  0  0  0  0
   23.4029   11.1377   -1.8407 C   0  0  0  0  0  0  0  0  0  0  0  0
   27.2331    8.4856   10.1752 O   0  0  0  0  0  0  0  0  0  0  0  0
   26.7685   11.5749   10.5641 O   0  0  0  0  0  0  0  0  0  0  0  0
   25.4008   10.0012   -1.2775 C   0  0  0  0  0  0  0  0  0  0  0  0
   23.7013   11.9701   -2.8962 C   0  0  0  0  0  0  0  0  0  0  0  0
   23.9893    9.9621   -2.0633 C   0  0  1  0  0  0  0  0  0  0  0  0
   35.2644    9.1241    1.6382 F   0  0  0  0  0  0  0  0  0  0  0  0
  1  2  1  6  0  0  0
  1 10  1  0  0  0  0
  1  3  1  0  0  0  0
  3  4  1  6  0  0  0
  3  6  1  0  0  0  0
  5 46  2  0  0  0  0
  6 42  1  1  0  0  0
  6  8  1  0  0  0  0
  7 47  1  0  0  0  0
  8  9  1  0  0  0  0
  8 49  1  1  0  0  0
  9 10  1  0  0  0  0
  9 11  1  1  0  0  0
 11 12  1  0  0  0  0
 13 14  1  6  0  0  0
 13 15  1  0  0  0  0
 13 21  1  0  0  0  0
 14 46  1  0  0  0  0
 15 16  1  0  0  0  0
 16 17  1  6  0  0  0
 16 18  1  0  0  0  0
 18  2  1  1  0  0  0
 18 19  1  0  0  0  0
 19 20  1  1  0  0  0
 19 21  1  0  0  0  0
 21 22  1  1  0  0  0
 23 20  1  6  0  0  0
 23 24  1  0  0  0  0
 23 28  1  0  0  0  0
 24 25  1  1  0  0  0
 24 26  1  0  0  0  0
 26 27  1  0  0  0  0
 26 32  1  1  0  0  0
 27 28  1  0  0  0  0
 27 29  1  6  0  0  0
 29 30  1  0  0  0  0
 31 32  1  6  0  0  0
 31 33  1  0  0  0  0
 31 39  1  0  0  0  0
 33 36  1  0  0  0  0
 33 41  1  6  0  0  0
 34 40  1  0  0  0  0
 35 48  1  0  0  0  0
 36 37  1  0  0  0  0
 36 45  1  6  0  0  0
 37 38  1  0  0  0  0
 37 44  1  6  0  0  0
 38 39  1  0  0  0  0
 38 40  1  6  0  0  0
 43 47  1  0  0  0  0
 46 48  1  0  0  0  0
 48 43  1  1  0  0  0
M  END
>  <CHROM.1>
-168.18010250,-159.97677025,-54.04869948,72.26871531,154.48085142,-8.01718721
173.34335386,-58.55964895,177.47943838,-57.40412961,-171.26183033,-145.45862514
38.45582030,28.41877449,10.30243080,3.11221759,-1.20703045,-0.06022870,1.64494681

>  <Name>
ligand

>  <RI>
0

>  <Rbt.Current_Directory>
/home/itssahil/PROJECTS/Mol_Feturizer/New_Systems/rnas/4PDQ

>  <Rbt.Executable>
rbdock ($Id: //depot/dev/client3/rdock/2013.1/src/exe/rbdock.cxx#4 $)

>  <Rbt.Library>
libRbt.so (2013.1, Build901 2013/11/27)

>  <Rbt.Parameter_File>
/export/apps/rDock/src/rDock_2013.1_src/data/scripts/dock_solv.prm

>  <Rbt.Receptor>
prm/pocket_docking_2.prm

>  <SCORE>
-0.828335

>  <SCORE.INTER>
1.31755

>  <SCORE.INTER.CONST>
1

>  <SCORE.INTER.POLAR>
0

>  <SCORE.INTER.ROT>
13

>  <SCORE.INTER.SOLV>
22.6051

>  <SCORE.INTER.VDW>
-18.9233

>  <SCORE.INTER.norm>
0.0268888

>  <SCORE.INTRA>
-3.56749

>  <SCORE.INTRA.DIHEDRAL>
-16.3822

>  <SCORE.INTRA.DIHEDRAL.0>
34.5115

>  <SCORE.INTRA.POLAR>
0

>  <SCORE.INTRA.POLAR.0>
0

>  <SCORE.INTRA.REPUL>
0.00752997

>  <SCORE.INTRA.REPUL.0>
0

>  <SCORE.INTRA.SOLV>
0.253449

>  <SCORE.INTRA.SOLV.lig_0>
-122.812

>  <SCORE.INTRA.VDW>
4.45926

>  <SCORE.INTRA.VDW.0>
-7.46208

>  <SCORE.INTRA.norm>
-0.0728058

>  <SCORE.RESTR>
1.4216

>  <SCORE.RESTR.CAVITY>
1.4216

>  <SCORE.RESTR.norm>
0.0290122

>  <SCORE.SYSTEM>
0

>  <SCORE.SYSTEM.CONST>
0

>  <SCORE.SYSTEM.DIHEDRAL>
0

>  <SCORE.SYSTEM.SOLV>
0

>  <SCORE.SYSTEM.norm>
0

>  <SCORE.heavy>
49

>  <SCORE.norm>
-0.0169048

>  <RMSD>
6.860

$$$$
ligand
 OpenBabel11021811513D
libRbt.so/2013.1/901 2013/11/27
 49 52  0  0  0  0  0  0  0  0999 V2000
   30.0542    9.7888    2.9671 C   0  0  2  0  0  0  0  0  0  0  0  0
   29.8901   10.4657    1.7560 O   0  0  0  0  0  0  0  0  0  0  0  0
   31.3815   10.2652    3.6660 C   0  0  2  0  0  0  0  0  0  0  0  0
   31.3092   11.7655    3.9030 N   0  0  0  0  0  0  0  0  0  0  0  0
   26.5295   14.1355   -2.7342 O   0  0  0  0  0  0  0  0  0  0  0  0
   32.6092    9.8885    2.8042 C   0  0  2  0  0  0  0  0  0  0  0  0
   23.6722   10.8707   -6.5493 N   0  0  0  0  0  0  0  0  0  0  0  0
   32.6496    8.3715    2.5619 C   0  0  2  0  0  0  0  0  0  0  0  0
   31.3243    7.8528    1.8588 C   0  0  2  0  0  0  0  0  0  0  0  0
   30.1371    8.2937    2.7169 O   0  0  0  0  0  0  0  0  0  0  0  0
   31.3488    6.3087    1.6672 C   0  0  0  0  0  0  0  0  0  0  0  0
   32.3953    5.8519    0.8245 N   0  0  0  0  0  0  0  0  0  0  0  0
   26.7117   12.0018   -0.7622 C   0  0  2  0  0  0  0  0  0  0  0  0
   25.6710   12.0414   -1.8310 N   0  0  0  0  0  0  0  0  0  0  0  0
   28.0311   11.3620   -1.4151 C   0  0  0  0  0  0  0  0  0  0  0  0
   29.1948   11.3049   -0.3565 C   0  0  2  0  0  0  0  0  0  0  0  0
   30.4035   10.7018   -0.9371 N   0  0  0  0  0  0  0  0  0  0  0  0
   28.7692   10.4581    0.8596 C   0  0  2  0  0  0  0  0  0  0  0  0
   27.4665   11.0603    1.5253 C   0  0  2  0  0  0  0  0  0  0  0  0
   27.1486   10.1898    2.6744 O   0  0  0  0  0  0  0  0  0  0  0  0
   26.2730   11.0470    0.4405 C   0  0  1  0  0  0  0  0  0  0  0  0
   25.1349   11.5727    1.0472 O   0  0  0  0  0  0  0  0  0  0  0  0
   26.9929   10.5511    3.9024 C   0  0  1  0  0  0  0  0  0  0  0  0
   25.9896   11.7178    4.1410 C   0  0  2  0  0  0  0  0  0  0  0  0
   26.7001   12.9150    4.0994 O   0  0  0  0  0  0  0  0  0  0  0  0
   25.5795   11.3768    5.5134 C   0  0  1  0  0  0  0  0  0  0  0  0
   25.4565    9.8248    5.6125 C   0  0  2  0  0  0  0  0  0  0  0  0
   26.5590    9.4847    4.8081 O   0  0  0  0  0  0  0  0  0  0  0  0
   24.1086    9.1837    5.2792 C   0  0  0  0  0  0  0  0  0  0  0  0
   24.2622    7.7959    5.5097 O   0  0  0  0  0  0  0  0  0  0  0  0
   26.3696   11.9679    7.7606 C   0  0  2  0  0  0  0  0  0  0  0  0
   26.6333   11.9342    6.4216 O   0  0  0  0  0  0  0  0  0  0  0  0
   27.4435   12.6798    8.5294 C   0  0  1  0  0  0  0  0  0  0  0  0
   24.6087    8.2475    9.6294 N   0  0  0  0  0  0  0  0  0  0  0  0
   24.3485   14.3656   -4.5121 O   0  0  0  0  0  0  0  0  0  0  0  0
   27.1008   12.6364   10.0692 C   0  0  2  0  0  0  0  0  0  0  0  0
   26.9166   11.1846   10.6323 C   0  0  1  0  0  0  0  0  0  0  0  0
   25.8728   10.5240    9.8841 C   0  0  1  0  0  0  0  0  0  0  0  0
   26.1786   10.5524    8.3986 O   0  0  0  0  0  0  0  0  0  0  0  0
   25.6811    9.0286   10.3940 C   0  0  0  0  0  0  0  0  0  0  0  0
   28.6819   12.0346    8.3390 N   0  0  0  0  0  0  0  0  0  0  0  0
   33.5607   10.2079    3.3510 O   0  0  0  0  0  0  0  0  0  0  0  0
   24.9207   12.1802   -4.7507 C   0  0  0  0  0  0  0  0  0  0  0  0
   27.9001   10.6117   10.4836 O   0  0  0  0  0  0  0  0  0  0  0  0
   26.1013   13.1828   10.2292 O   0  0  0  0  0  0  0  0  0  0  0  0
   25.7061   13.2101   -2.7700 C   0  0  0  0  0  0  0  0  0  0  0  0
   23.8204   11.7959   -5.4840 C   0  0  0  0  0  0  0  0  0  0  0  0
   24.5300   13.1037   -3.8732 C   0  0  1  0  0  0  0  0  0  0  0  0
   32.7896    7.6945    3.7863 F   0  0  0  0  0  0  0  0  0  0  0  0
  1  2  1  6  0  0  0
  1 10  1  0  0  0  0
  1  3  1  0  0  0  0
  3  4  1  6  0  0  0
  3  6  1  0  0  0  0
  5 46  2  0  0  0  0
  6 42  1  1  0  0  0
  6  8  1  0  0  0  0
  7 47  1  0  0  0  0
  8  9  1  0  0  0  0
  8 49  1  1  0  0  0
  9 10  1  0  0  0  0
  9 11  1  1  0  0  0
 11 12  1  0  0  0  0
 13 14  1  6  0  0  0
 13 15  1  0  0  0  0
 13 21  1  0  0  0  0
 14 46  1  0  0  0  0
 15 16  1  0  0  0  0
 16 17  1  6  0  0  0
 16 18  1  0  0  0  0
 18  2  1  1  0  0  0
 18 19  1  0  0  0  0
 19 20  1  1  0  0  0
 19 21  1  0  0  0  0
 21 22  1  1  0  0  0
 23 20  1  6  0  0  0
 23 24  1  0  0  0  0
 23 28  1  0  0  0  0
 24 25  1  1  0  0  0
 24 26  1  0  0  0  0
 26 27  1  0  0  0  0
 26 32  1  1  0  0  0
 27 28  1  0  0  0  0
 27 29  1  6  0  0  0
 29 30  1  0  0  0  0
 31 32  1  6  0  0  0
 31 33  1  0  0  0  0
 31 39  1  0  0  0  0
 33 36  1  0  0  0  0
 33 41  1  1  0  0  0
 34 40  1  0  0  0  0
 35 48  1  0  0  0  0
 36 37  1  0  0  0  0
 36 45  1  6  0  0  0
 37 38  1  0  0  0  0
 37 44  1  6  0  0  0
 38 39  1  0  0  0  0
 38 40  1  1  0  0  0
 43 47  1  0  0  0  0
 46 48  1  0  0  0  0
 48 43  1  6  0  0  0
M  END
>  <CHROM.1>
-172.76705703,-175.98904554,-62.33651254,-83.55342263,124.85057016,51.80846958
168.25483321,-177.33889265,-173.92661376,-178.79911069,178.95705475,-76.75797772
-16.57276305,27.62806773,10.70887504,3.13347966,-1.49605681,0.43148672,-1.49850313

>  <Name>
ligand

>  <RI>
0

>  <Rbt.Current_Directory>
/home/itssahil/PROJECTS/Mol_Feturizer/New_Systems/rnas/4PDQ

>  <Rbt.Executable>
rbdock ($Id: //depot/dev/client3/rdock/2013.1/src/exe/rbdock.cxx#4 $)

>  <Rbt.Library>
libRbt.so (2013.1, Build901 2013/11/27)

>  <Rbt.Parameter_File>
/export/apps/rDock/src/rDock_2013.1_src/data/scripts/dock_solv.prm

>  <Rbt.Receptor>
prm/pocket_docking_5.prm

>  <SCORE>
-11.567

>  <SCORE.INTER>
0.671958

>  <SCORE.INTER.CONST>
1

>  <SCORE.INTER.POLAR>
0

>  <SCORE.INTER.ROT>
13

>  <SCORE.INTER.SOLV>
15.2937

>  <SCORE.INTER.VDW>
-16.9166

>  <SCORE.INTER.norm>
0.0137134

>  <SCORE.INTRA>
-12.239

>  <SCORE.INTRA.DIHEDRAL>
-23.3909

>  <SCORE.INTRA.DIHEDRAL.0>
34.5115

>  <SCORE.INTRA.POLAR>
0

>  <SCORE.INTRA.POLAR.0>
0

>  <SCORE.INTRA.REPUL>
0.00230677

>  <SCORE.INTRA.REPUL.0>
0

>  <SCORE.INTRA.SOLV>
-4.56323

>  <SCORE.INTRA.SOLV.lig_0>
-122.812

>  <SCORE.INTRA.VDW>
1.72656

>  <SCORE.INTRA.VDW.0>
-7.46208

>  <SCORE.INTRA.norm>
-0.249775

>  <SCORE.RESTR>
0

>  <SCORE.RESTR.CAVITY>
0

>  <SCORE.RESTR.norm>
0

>  <SCORE.SYSTEM>
0

>  <SCORE.SYSTEM.CONST>
0

>  <SCORE.SYSTEM.DIHEDRAL>
0

>  <SCORE.SYSTEM.SOLV>
0

>  <SCORE.SYSTEM.norm>
0

>  <SCORE.heavy>
49

>  <SCORE.norm>
-0.236062

>  <RMSD>
6.878

$$$$
ligand
 OpenBabel11021811513D
libRbt.so/2013.1/901 2013/11/27
 49 52  0  0  0  0  0  0  0  0999 V2000
   31.1193    9.4900    1.4764 C   0  0  2  0  0  0  0  0  0  0  0  0
   29.9266   10.1769    1.7162 O   0  0  0  0  0  0  0  0  0  0  0  0
   30.8246    7.9513    1.3255 C   0  0  2  0  0  0  0  0  0  0  0  0
   29.8513    7.7405    0.1762 N   0  0  0  0  0  0  0  0  0  0  0  0
   26.5255   14.0089   -2.5196 O   0  0  0  0  0  0  0  0  0  0  0  0
   30.2676    7.3771    2.6491 C   0  0  2  0  0  0  0  0  0  0  0  0
   22.5594   12.6633   -5.8328 N   0  0  0  0  0  0  0  0  0  0  0  0
   31.2587    7.6195    3.7982 C   0  0  2  0  0  0  0  0  0  0  0  0
   31.5824    9.1628    3.9800 C   0  0  2  0  0  0  0  0  0  0  0  0
   32.0779    9.6978    2.6351 O   0  0  0  0  0  0  0  0  0  0  0  0
   32.6286    9.3959    5.1082 C   0  0  0  0  0  0  0  0  0  0  0  0
   32.1789    9.0063    6.3966 N   0  0  0  0  0  0  0  0  0  0  0  0
   26.6266   11.9327   -0.4815 C   0  0  2  0  0  0  0  0  0  0  0  0
   25.5134   12.0577   -1.4676 N   0  0  0  0  0  0  0  0  0  0  0  0
   27.8741   11.2903   -1.2609 C   0  0  0  0  0  0  0  0  0  0  0  0
   29.1086   11.1447   -0.2948 C   0  0  2  0  0  0  0  0  0  0  0  0
   30.2523   10.5384   -0.9922 N   0  0  0  0  0  0  0  0  0  0  0  0
   28.7445   10.2482    0.9054 C   0  0  2  0  0  0  0  0  0  0  0  0
   27.5132   10.8519    1.6944 C   0  0  2  0  0  0  0  0  0  0  0  0
   27.2508    9.9320    2.8188 O   0  0  0  0  0  0  0  0  0  0  0  0
   26.2449   10.9294    0.7010 C   0  0  1  0  0  0  0  0  0  0  0  0
   25.1710   11.4550    1.4152 O   0  0  0  0  0  0  0  0  0  0  0  0
   26.9135   10.2525    4.0215 C   0  0  1  0  0  0  0  0  0  0  0  0
   25.7169   11.2411    4.1464 C   0  0  2  0  0  0  0  0  0  0  0  0
   26.2267   12.5370    4.1694 O   0  0  0  0  0  0  0  0  0  0  0  0
   25.2274   10.8262    5.4716 C   0  0  1  0  0  0  0  0  0  0  0  0
   25.3452    9.2738    5.5692 C   0  0  2  0  0  0  0  0  0  0  0  0
   26.5651    9.1221    4.8854 O   0  0  0  0  0  0  0  0  0  0  0  0
   24.1592    8.4280    5.1032 C   0  0  0  0  0  0  0  0  0  0  0  0
   24.5297    7.0780    5.3102 O   0  0  0  0  0  0  0  0  0  0  0  0
   25.8283   11.3084    7.8019 C   0  0  2  0  0  0  0  0  0  0  0  0
   26.0790   11.5369    6.4796 O   0  0  0  0  0  0  0  0  0  0  0  0
   26.5656   12.2669    8.6899 C   0  0  1  0  0  0  0  0  0  0  0  0
   25.5251    7.0008    9.2111 N   0  0  0  0  0  0  0  0  0  0  0  0
   24.2977   14.3979   -4.1960 O   0  0  0  0  0  0  0  0  0  0  0  0
   26.2712   11.9139   10.1994 C   0  0  2  0  0  0  0  0  0  0  0  0
   26.6411   10.4396   10.5847 C   0  0  1  0  0  0  0  0  0  0  0  0
   25.9128    9.5369    9.7243 C   0  0  1  0  0  0  0  0  0  0  0  0
   26.1787    9.8559    8.2653 O   0  0  0  0  0  0  0  0  0  0  0  0
   26.2916    8.0261   10.0515 C   0  0  0  0  0  0  0  0  0  0  0  0
   27.9541   12.1518    8.4769 N   0  0  0  0  0  0  0  0  0  0  0  0
   30.1005    6.2531    2.5269 O   0  0  0  0  0  0  0  0  0  0  0  0
   24.5071   12.1372   -4.2714 C   0  0  0  0  0  0  0  0  0  0  0  0
   27.7661   10.2920   10.4111 O   0  0  0  0  0  0  0  0  0  0  0  0
   25.1412   12.0298   10.3805 O   0  0  0  0  0  0  0  0  0  0  0  0
   25.6031   13.1839   -2.4538 C   0  0  0  0  0  0  0  0  0  0  0  0
   23.3108   11.8932   -4.9081 C   0  0  0  0  0  0  0  0  0  0  0  0
   24.3368   13.1785   -3.4577 C   0  0  1  0  0  0  0  0  0  0  0  0
   32.4659    6.9464    3.5396 F   0  0  0  0  0  0  0  0  0  0  0  0
  1  2  1  1  0  0  0
  1 10  1  0  0  0  0
  1  3  1  0  0  0  0
  3  4  1  6  0  0  0
  3  6  1  0  0  0  0
  5 46  2  0  0  0  0
  6 42  1  6  0  0  0
  6  8  1  0  0  0  0
  7 47  1  0  0  0  0
  8  9  1  0  0  0  0
  8 49  1  6  0  0  0
  9 10  1  0  0  0  0
  9 11  1  1  0  0  0
 11 12  1  0  0  0  0
 13 14  1  6  0  0  0
 13 15  1  0  0  0  0
 13 21  1  0  0  0  0
 14 46  1  0  0  0  0
 15 16  1  0  0  0  0
 16 17  1  6  0  0  0
 16 18  1  0  0  0  0
 18  2  1  1  0  0  0
 18 19  1  0  0  0  0
 19 20  1  1  0  0  0
 19 21  1  0  0  0  0
 21 22  1  1  0  0  0
 23 20  1  6  0  0  0
 23 24  1  0  0  0  0
 23 28  1  0  0  0  0
 24 25  1  1  0  0  0
 24 26  1  0  0  0  0
 26 27  1  0  0  0  0
 26 32  1  1  0  0  0
 27 28  1  0  0  0  0
 27 29  1  6  0  0  0
 29 30  1  0  0  0  0
 31 32  1  6  0  0  0
 31 33  1  0  0  0  0
 31 39  1  0  0  0  0
 33 36  1  0  0  0  0
 33 41  1  1  0  0  0
 34 40  1  0  0  0  0
 35 48  1  0  0  0  0
 36 37  1  0  0  0  0
 36 45  1  6  0  0  0
 37 38  1  0  0  0  0
 37 44  1  6  0  0  0
 38 39  1  0  0  0  0
 38 40  1  1  0  0  0
 43 47  1  0  0  0  0
 46 48  1  0  0  0  0
 48 43  1  6  0  0  0
M  END
>  <CHROM.1>
-59.34630066,-72.67754725,-63.84107198,-76.59476197,140.89020810,50.36300853
-179.49532558,-179.57516681,-169.14857419,178.08632997,64.99748192,-75.54335196
-12.79098151,27.37808052,10.34013539,3.28275291,-1.70259602,-0.47356911,1.71515183

>  <Name>
ligand

>  <RI>
0

>  <Rbt.Current_Directory>
/home/itssahil/PROJECTS/Mol_Feturizer/New_Systems/rnas/4PDQ

>  <Rbt.Executable>
rbdock ($Id: //depot/dev/client3/rdock/2013.1/src/exe/rbdock.cxx#4 $)

>  <Rbt.Library>
libRbt.so (2013.1, Build901 2013/11/27)

>  <Rbt.Parameter_File>
/export/apps/rDock/src/rDock_2013.1_src/data/scripts/dock_solv.prm

>  <Rbt.Receptor>
prm/pocket_docking_6.prm

>  <SCORE>
-9.27233

>  <SCORE.INTER>
-0.204375

>  <SCORE.INTER.CONST>
1

>  <SCORE.INTER.POLAR>
0

>  <SCORE.INTER.ROT>
13

>  <SCORE.INTER.SOLV>
12.8719

>  <SCORE.INTER.VDW>
-16.6936

>  <SCORE.INTER.norm>
-0.00417091

>  <SCORE.INTRA>
-9.06795

>  <SCORE.INTRA.DIHEDRAL>
-25.2475

>  <SCORE.INTRA.DIHEDRAL.0>
34.5115

>  <SCORE.INTRA.POLAR>
0

>  <SCORE.INTRA.POLAR.0>
0

>  <SCORE.INTRA.REPUL>
0

>  <SCORE.INTRA.REPUL.0>
0

>  <SCORE.INTRA.SOLV>
1.53627

>  <SCORE.INTRA.SOLV.lig_0>
-122.812

>  <SCORE.INTRA.VDW>
2.78765

>  <SCORE.INTRA.VDW.0>
-7.46208

>  <SCORE.INTRA.norm>
-0.18506

>  <SCORE.RESTR>
0

>  <SCORE.RESTR.CAVITY>
0

>  <SCORE.RESTR.norm>
0

>  <SCORE.SYSTEM>
0

>  <SCORE.SYSTEM.CONST>
0

>  <SCORE.SYSTEM.DIHEDRAL>
0

>  <SCORE.SYSTEM.SOLV>
0

>  <SCORE.SYSTEM.norm>
0

>  <SCORE.heavy>
49

>  <SCORE.norm>
-0.189231

>  <RMSD>
6.887

$$$$
ligand
 OpenBabel11021811513D
libRbt.so/2013.1/901 2013/11/27
 49 52  0  0  0  0  0  0  0  0999 V2000
   31.3206   10.0767    2.9199 C   0  0  2  0  0  0  0  0  0  0  0  0
   30.6440   10.7822    1.9217 O   0  0  0  0  0  0  0  0  0  0  0  0
   32.5848   10.8921    3.3824 C   0  0  2  0  0  0  0  0  0  0  0  0
   32.1393   12.2499    3.9023 N   0  0  0  0  0  0  0  0  0  0  0  0
   25.8390   13.2146   -1.7420 O   0  0  0  0  0  0  0  0  0  0  0  0
   33.5892   11.0366    2.2153 C   0  0  2  0  0  0  0  0  0  0  0  0
   23.5257    8.4019   -1.7043 N   0  0  0  0  0  0  0  0  0  0  0  0
   34.0090    9.6531    1.6944 C   0  0  2  0  0  0  0  0  0  0  0  0
   32.7580    8.7991    1.2196 C   0  0  2  0  0  0  0  0  0  0  0  0
   31.7707    8.7287    2.3860 O   0  0  0  0  0  0  0  0  0  0  0  0
   33.1849    7.3796    0.7457 C   0  0  0  0  0  0  0  0  0  0  0  0
   32.4760    6.9184   -0.3940 N   0  0  0  0  0  0  0  0  0  0  0  0
   26.6155   11.5324    0.5034 C   0  0  2  0  0  0  0  0  0  0  0  0
   25.3442   11.3478   -0.2560 N   0  0  0  0  0  0  0  0  0  0  0  0
   27.8190   11.3195   -0.5372 C   0  0  0  0  0  0  0  0  0  0  0  0
   29.2061   11.5217    0.1793 C   0  0  2  0  0  0  0  0  0  0  0  0
   30.3177   11.3093   -0.7593 N   0  0  0  0  0  0  0  0  0  0  0  0
   29.3577   10.5201    1.3416 C   0  0  2  0  0  0  0  0  0  0  0  0
   28.1825   10.7007    2.3853 C   0  0  2  0  0  0  0  0  0  0  0  0
   28.4214    9.7099    3.4533 O   0  0  0  0  0  0  0  0  0  0  0  0
   26.7781   10.4243    1.6420 C   0  0  1  0  0  0  0  0  0  0  0  0
   25.7585   10.5803    2.5778 O   0  0  0  0  0  0  0  0  0  0  0  0
   28.0103    9.7699    4.6740 C   0  0  1  0  0  0  0  0  0  0  0  0
   28.8747   10.6375    5.6357 C   0  0  2  0  0  0  0  0  0  0  0  0
   29.8321    9.8121    6.2207 O   0  0  0  0  0  0  0  0  0  0  0  0
   27.8233   11.0147    6.5951 C   0  0  1  0  0  0  0  0  0  0  0  0
   26.5121   11.2895    5.7959 C   0  0  2  0  0  0  0  0  0  0  0  0
   26.6422   10.2663    4.8395 O   0  0  0  0  0  0  0  0  0  0  0  0
   26.2593   12.7096    5.2877 C   0  0  0  0  0  0  0  0  0  0  0  0
   24.8541   12.8594    5.2129 O   0  0  0  0  0  0  0  0  0  0  0  0
   26.7417    9.9583    8.5283 C   0  0  2  0  0  0  0  0  0  0  0  0
   27.6904    9.8680    7.5509 O   0  0  0  0  0  0  0  0  0  0  0  0
   27.1201   10.9461    9.5924 C   0  0  1  0  0  0  0  0  0  0  0  0
   26.4197    6.5062   11.4365 N   0  0  0  0  0  0  0  0  0  0  0  0
   23.4126   12.9377   -3.1213 O   0  0  0  0  0  0  0  0  0  0  0  0
   26.0076   10.9615   10.7114 C   0  0  2  0  0  0  0  0  0  0  0  0
   25.7458    9.5571   11.3580 C   0  0  1  0  0  0  0  0  0  0  0  0
   25.3743    8.6275   10.3172 C   0  0  1  0  0  0  0  0  0  0  0  0
   26.4288    8.5941    9.2273 O   0  0  0  0  0  0  0  0  0  0  0  0
   25.1410    7.1745   10.9236 C   0  0  0  0  0  0  0  0  0  0  0  0
   28.3379   10.5670   10.1920 N   0  0  0  0  0  0  0  0  0  0  0  0
   34.5144   11.5956    2.5867 O   0  0  0  0  0  0  0  0  0  0  0  0
   23.8175   10.7522   -2.6529 C   0  0  0  0  0  0  0  0  0  0  0  0
   26.7197    9.1974   11.8475 O   0  0  0  0  0  0  0  0  0  0  0  0
   25.0179   11.2930   10.2279 O   0  0  0  0  0  0  0  0  0  0  0  0
   25.0840   12.2987   -1.3860 C   0  0  0  0  0  0  0  0  0  0  0  0
   23.4909    9.8202   -1.6932 C   0  0  0  0  0  0  0  0  0  0  0  0
   23.6813   11.9636   -2.1151 C   0  0  1  0  0  0  0  0  0  0  0  0
   34.6672    8.9381    2.7107 F   0  0  0  0  0  0  0  0  0  0  0  0
  1  2  1  6  0  0  0
  1 10  1  0  0  0  0
  1  3  1  0  0  0  0
  3  4  1  6  0  0  0
  3  6  1  0  0  0  0
  5 46  2  0  0  0  0
  6 42  1  1  0  0  0
  6  8  1  0  0  0  0
  7 47  1  0  0  0  0
  8  9  1  0  0  0  0
  8 49  1  1  0  0  0
  9 10  1  0  0  0  0
  9 11  1  1  0  0  0
 11 12  1  0  0  0  0
 13 14  1  6  0  0  0
 13 15  1  0  0  0  0
 13 21  1  0  0  0  0
 14 46  1  0  0  0  0
 15 16  1  0  0  0  0
 16 17  1  6  0  0  0
 16 18  1  0  0  0  0
 18  2  1  1  0  0  0
 18 19  1  0  0  0  0
 19 20  1  1  0  0  0
 19 21  1  0  0  0  0
 21 22  1  1  0  0  0
 23 20  1  6  0  0  0
 23 24  1  0  0  0  0
 23 28  1  0  0  0  0
 24 25  1  1  0  0  0
 24 26  1  0  0  0  0
 26 27  1  0  0  0  0
 26 32  1  1  0  0  0
 27 28  1  0  0  0  0
 27 29  1  6  0  0  0
 29 30  1  0  0  0  0
 31 32  1  6  0  0  0
 31 33  1  0  0  0  0
 31 39  1  0  0  0  0
 33 36  1  0  0  0  0
 33 41  1  1  0  0  0
 34 40  1  0  0  0  0
 35 48  1  0  0  0  0
 36 37  1  0  0  0  0
 36 45  1  6  0  0  0
 37 38  1  0  0  0  0
 37 44  1  6  0  0  0
 38 39  1  0  0  0  0
 38 40  1  1  0  0  0
 43 47  1  0  0  0  0
 46 48  1  0  0  0  0
 48 43  1  6  0  0  0
M  END
>  <CHROM.1>
-170.49623334,-173.37226238,-140.92339992,-61.50973479,155.57080193,-82.14105311
-178.22514119,-152.15740664,-72.25299111,-68.29641338,-176.40268848,-154.07452613
-5.01750167,28.10606464,10.34040948,3.84518699,-1.42466407,-0.15365321,1.70930877

>  <Name>
ligand

>  <RI>
0

>  <Rbt.Current_Directory>
/home/itssahil/PROJECTS/Mol_Feturizer/New_Systems/rnas/4PDQ

>  <Rbt.Executable>
rbdock ($Id: //depot/dev/client3/rdock/2013.1/src/exe/rbdock.cxx#4 $)

>  <Rbt.Library>
libRbt.so (2013.1, Build901 2013/11/27)

>  <Rbt.Parameter_File>
/export/apps/rDock/src/rDock_2013.1_src/data/scripts/dock_solv.prm

>  <Rbt.Receptor>
prm/pocket_docking_3.prm

>  <SCORE>
-6.27521

>  <SCORE.INTER>
1.31131

>  <SCORE.INTER.CONST>
1

>  <SCORE.INTER.POLAR>
0

>  <SCORE.INTER.ROT>
13

>  <SCORE.INTER.SOLV>
24.7429

>  <SCORE.INTER.VDW>
-19.6401

>  <SCORE.INTER.norm>
0.0267614

>  <SCORE.INTRA>
-7.59148

>  <SCORE.INTRA.DIHEDRAL>
-19.0212

>  <SCORE.INTRA.DIHEDRAL.0>
34.5115

>  <SCORE.INTRA.POLAR>
0

>  <SCORE.INTRA.POLAR.0>
0

>  <SCORE.INTRA.REPUL>
0

>  <SCORE.INTRA.REPUL.0>
0

>  <SCORE.INTRA.SOLV>
-1.97872

>  <SCORE.INTRA.SOLV.lig_0>
-122.812

>  <SCORE.INTRA.VDW>
2.9085

>  <SCORE.INTRA.VDW.0>
-7.46208

>  <SCORE.INTRA.norm>
-0.154928

>  <SCORE.RESTR>
0.00496499

>  <SCORE.RESTR.CAVITY>
0.00496499

>  <SCORE.RESTR.norm>
0.000101326

>  <SCORE.SYSTEM>
0

>  <SCORE.SYSTEM.CONST>
0

>  <SCORE.SYSTEM.DIHEDRAL>
0

>  <SCORE.SYSTEM.SOLV>
0

>  <SCORE.SYSTEM.norm>
0

>  <SCORE.heavy>
49

>  <SCORE.norm>
-0.128065

>  <RMSD>
6.928

$$$$
ligand
 OpenBabel11021811513D
libRbt.so/2013.1/901 2013/11/27
 49 52  0  0  0  0  0  0  0  0999 V2000
   30.8362   11.4206    3.1152 C   0  0  2  0  0  0  0  0  0  0  0  0
   30.0695   10.3307    2.6953 O   0  0  0  0  0  0  0  0  0  0  0  0
   31.9113   10.9421    4.1605 C   0  0  2  0  0  0  0  0  0  0  0  0
   32.7975    9.8873    3.5167 N   0  0  0  0  0  0  0  0  0  0  0  0
   24.7124   13.2676   -0.4317 O   0  0  0  0  0  0  0  0  0  0  0  0
   31.2207   10.3986    5.4331 C   0  0  2  0  0  0  0  0  0  0  0  0
   21.5913   11.7333   -4.1194 N   0  0  0  0  0  0  0  0  0  0  0  0
   30.3162   11.4748    6.0538 C   0  0  2  0  0  0  0  0  0  0  0  0
   29.2183   11.9843    5.0268 C   0  0  2  0  0  0  0  0  0  0  0  0
   29.9430   12.4610    3.7667 O   0  0  0  0  0  0  0  0  0  0  0  0
   28.3422   13.1128    5.6437 C   0  0  0  0  0  0  0  0  0  0  0  0
   27.3015   13.5622    4.7899 N   0  0  0  0  0  0  0  0  0  0  0  0
   27.1375   11.6734   -0.2036 C   0  0  2  0  0  0  0  0  0  0  0  0
   26.2658   11.6682   -1.4149 N   0  0  0  0  0  0  0  0  0  0  0  0
   28.6021   11.2185   -0.6772 C   0  0  0  0  0  0  0  0  0  0  0  0
   29.5982   11.2199    0.5418 C   0  0  2  0  0  0  0  0  0  0  0  0
   30.9393   10.7852    0.1245 N   0  0  0  0  0  0  0  0  0  0  0  0
   29.0994   10.2596    1.6400 C   0  0  2  0  0  0  0  0  0  0  0  0
   27.6535   10.6782    2.1271 C   0  0  2  0  0  0  0  0  0  0  0  0
   27.2730    9.7098    3.1744 O   0  0  0  0  0  0  0  0  0  0  0  0
   26.6401   10.6053    0.8745 C   0  0  1  0  0  0  0  0  0  0  0  0
   25.3733   10.9690    1.3248 O   0  0  0  0  0  0  0  0  0  0  0  0
   27.5294    9.7896    4.4356 C   0  0  1  0  0  0  0  0  0  0  0  0
   26.4357    9.2170    5.3845 C   0  0  2  0  0  0  0  0  0  0  0  0
   25.5617   10.2510    5.7115 O   0  0  0  0  0  0  0  0  0  0  0  0
   27.2992    8.8554    6.5211 C   0  0  1  0  0  0  0  0  0  0  0  0
   28.6317    8.2756    5.9539 C   0  0  2  0  0  0  0  0  0  0  0  0
   28.7740    9.1400    4.8535 O   0  0  0  0  0  0  0  0  0  0  0  0
   28.7114    6.7711    5.6910 C   0  0  0  0  0  0  0  0  0  0  0  0
   27.7880    6.5007    4.6534 O   0  0  0  0  0  0  0  0  0  0  0  0
   26.6044   10.3967    8.3002 C   0  0  2  0  0  0  0  0  0  0  0  0
   27.5039   10.1107    7.3139 O   0  0  0  0  0  0  0  0  0  0  0  0
   26.7977   11.7764    8.8572 C   0  0  1  0  0  0  0  0  0  0  0  0
   25.6830    7.0998   11.2224 N   0  0  0  0  0  0  0  0  0  0  0  0
   25.0861   12.6682   -3.8673 O   0  0  0  0  0  0  0  0  0  0  0  0
   25.7621   12.0198   10.0228 C   0  0  2  0  0  0  0  0  0  0  0  0
   25.8534   10.9623   11.1770 C   0  0  1  0  0  0  0  0  0  0  0  0
   25.6548    9.6454   10.6185 C   0  0  1  0  0  0  0  0  0  0  0  0
   26.6394    9.3863    9.4939 O   0  0  0  0  0  0  0  0  0  0  0  0
   25.7831    8.5338   11.7503 C   0  0  0  0  0  0  0  0  0  0  0  0
   28.0954   11.9036    9.3920 N   0  0  0  0  0  0  0  0  0  0  0  0
   32.0208   10.0962    6.1912 O   0  0  0  0  0  0  0  0  0  0  0  0
   23.7123   11.2047   -2.8040 C   0  0  0  0  0  0  0  0  0  0  0  0
   26.9045   11.0172   11.6350 O   0  0  0  0  0  0  0  0  0  0  0  0
   24.7023   11.9390    9.5829 O   0  0  0  0  0  0  0  0  0  0  0  0
   25.0471   12.5412   -1.3783 C   0  0  0  0  0  0  0  0  0  0  0  0
   22.3533   11.3067   -3.0013 C   0  0  0  0  0  0  0  0  0  0  0  0
   24.2169   12.4371   -2.7608 C   0  0  1  0  0  0  0  0  0  0  0  0
   31.0899   12.5795    6.4517 F   0  0  0  0  0  0  0  0  0  0  0  0
  1  2  1  1  0  0  0
  1 10  1  0  0  0  0
  1  3  1  0  0  0  0
  3  4  1  6  0  0  0
  3  6  1  0  0  0  0
  5 46  2  0  0  0  0
  6 42  1  1  0  0  0
  6  8  1  0  0  0  0
  7 47  1  0  0  0  0
  8  9  1  0  0  0  0
  8 49  1  6  0  0  0
  9 10  1  0  0  0  0
  9 11  1  1  0  0  0
 11 12  1  0  0  0  0
 13 14  1  6  0  0  0
 13 15  1  0  0  0  0
 13 21  1  0  0  0  0
 14 46  1  0  0  0  0
 15 16  1  0  0  0  0
 16 17  1  6  0  0  0
 16 18  1  0  0  0  0
 18  2  1  1  0  0  0
 18 19  1  0  0  0  0
 19 20  1  1  0  0  0
 19 21  1  0  0  0  0
 21 22  1  1  0  0  0
 23 20  1  6  0  0  0
 23 24  1  0  0  0  0
 23 28  1  0  0  0  0
 24 25  1  1  0  0  0
 24 26  1  0  0  0  0
 26 27  1  0  0  0  0
 26 32  1  6  0  0  0
 27 28  1  0  0  0  0
 27 29  1  6  0  0  0
 29 30  1  0  0  0  0
 31 32  1  6  0  0  0
 31 33  1  0  0  0  0
 31 39  1  0  0  0  0
 33 36  1  0  0  0  0
 33 41  1  1  0  0  0
 34 40  1  0  0  0  0
 35 48  1  0  0  0  0
 36 37  1  0  0  0  0
 36 45  1  6  0  0  0
 37 38  1  0  0  0  0
 37 44  1  6  0  0  0
 38 39  1  0  0  0  0
 38 40  1  1  0  0  0
 43 47  1  0  0  0  0
 46 48  1  0  0  0  0
 48 43  1  6  0  0  0
M  END
>  <CHROM.1>
-171.31184925,33.52188918,-177.16037835,-156.40603970,87.53430693,145.58110844
89.15774305,65.40107435,-170.71986155,-175.93060044,68.92091694,-114.47753430
127.25136028,27.50464942,10.73236337,4.28936466,-1.72757932,-0.04210005,1.70811831

>  <Name>
ligand

>  <RI>
0

>  <Rbt.Current_Directory>
/home/itssahil/PROJECTS/Mol_Feturizer/New_Systems/rnas/4PDQ

>  <Rbt.Executable>
rbdock ($Id: //depot/dev/client3/rdock/2013.1/src/exe/rbdock.cxx#4 $)

>  <Rbt.Library>
libRbt.so (2013.1, Build901 2013/11/27)

>  <Rbt.Parameter_File>
/export/apps/rDock/src/rDock_2013.1_src/data/scripts/dock_solv.prm

>  <Rbt.Receptor>
prm/pocket_docking_4.prm

>  <SCORE>
-4.73747

>  <SCORE.INTER>
-0.125616

>  <SCORE.INTER.CONST>
1

>  <SCORE.INTER.POLAR>
0

>  <SCORE.INTER.ROT>
13

>  <SCORE.INTER.SOLV>
15.6255

>  <SCORE.INTER.VDW>
-17.5589

>  <SCORE.INTER.norm>
-0.0025636

>  <SCORE.INTRA>
-4.63126

>  <SCORE.INTRA.DIHEDRAL>
-12.9661

>  <SCORE.INTRA.DIHEDRAL.0>
34.5115

>  <SCORE.INTRA.POLAR>
0

>  <SCORE.INTRA.POLAR.0>
0

>  <SCORE.INTRA.REPUL>
0.354893

>  <SCORE.INTRA.REPUL.0>
0

>  <SCORE.INTRA.SOLV>
1.32891

>  <SCORE.INTRA.SOLV.lig_0>
-122.812

>  <SCORE.INTRA.VDW>
-0.5871

>  <SCORE.INTRA.VDW.0>
-7.46208

>  <SCORE.INTRA.norm>
-0.0945155

>  <SCORE.RESTR>
0.019408

>  <SCORE.RESTR.CAVITY>
0.019408

>  <SCORE.RESTR.norm>
0.000396082

>  <SCORE.SYSTEM>
0

>  <SCORE.SYSTEM.CONST>
0

>  <SCORE.SYSTEM.DIHEDRAL>
0

>  <SCORE.SYSTEM.SOLV>
0

>  <SCORE.SYSTEM.norm>
0

>  <SCORE.heavy>
49

>  <SCORE.norm>
-0.096683

>  <RMSD>
6.948

$$$$
ligand
 OpenBabel11021811513D
libRbt.so/2013.1/901 2013/11/27
 49 52  0  0  0  0  0  0  0  0999 V2000
   32.6187    9.2594    2.2343 C   0  0  2  0  0  0  0  0  0  0  0  0
   31.7836   10.3679    2.3953 O   0  0  0  0  0  0  0  0  0  0  0  0
   33.9427    9.4678    3.0593 C   0  0  2  0  0  0  0  0  0  0  0  0
   33.5910    9.6578    4.5265 N   0  0  0  0  0  0  0  0  0  0  0  0
   26.8524   12.1082   -1.6372 O   0  0  0  0  0  0  0  0  0  0  0  0
   34.7362   10.6755    2.5083 C   0  0  2  0  0  0  0  0  0  0  0  0
   23.9125    8.4120   -0.6538 N   0  0  0  0  0  0  0  0  0  0  0  0
   35.0623   10.4696    1.0208 C   0  0  2  0  0  0  0  0  0  0  0  0
   33.7494   10.2537    0.1553 C   0  0  2  0  0  0  0  0  0  0  0  0
   32.9725    9.0870    0.7681 O   0  0  0  0  0  0  0  0  0  0  0  0
   34.0903    9.9906   -1.3401 C   0  0  0  0  0  0  0  0  0  0  0  0
   32.9947    9.5071   -2.1016 N   0  0  0  0  0  0  0  0  0  0  0  0
   27.9200   11.8092    1.0545 C   0  0  2  0  0  0  0  0  0  0  0  0
   26.4591   11.8141    0.7496 N   0  0  0  0  0  0  0  0  0  0  0  0
   28.5113   10.4250    0.4970 C   0  0  0  0  0  0  0  0  0  0  0  0
   30.0620   10.3466    0.7565 C   0  0  2  0  0  0  0  0  0  0  0  0
   30.6123    9.0737    0.2680 N   0  0  0  0  0  0  0  0  0  0  0  0
   30.3568   10.4525    2.2661 C   0  0  2  0  0  0  0  0  0  0  0  0
   29.7822   11.8063    2.8492 C   0  0  2  0  0  0  0  0  0  0  0  0
   30.1202   11.8145    4.2862 O   0  0  0  0  0  0  0  0  0  0  0  0
   28.1846   11.8321    2.6293 C   0  0  1  0  0  0  0  0  0  0  0  0
   27.6976   13.0262    3.1555 O   0  0  0  0  0  0  0  0  0  0  0  0
   29.3830   11.3994    5.2594 C   0  0  1  0  0  0  0  0  0  0  0  0
   30.1319   11.0876    6.5885 C   0  0  2  0  0  0  0  0  0  0  0  0
   30.5004    9.7445    6.5730 O   0  0  0  0  0  0  0  0  0  0  0  0
   29.0252   11.3367    7.5272 C   0  0  1  0  0  0  0  0  0  0  0  0
   28.2245   12.5745    7.0171 C   0  0  2  0  0  0  0  0  0  0  0  0
   28.2959   12.3050    5.6384 O   0  0  0  0  0  0  0  0  0  0  0  0
   28.6571   13.9619    7.4935 C   0  0  0  0  0  0  0  0  0  0  0  0
   30.0622   14.0154    7.3337 O   0  0  0  0  0  0  0  0  0  0  0  0
   26.9304   10.1667    8.0430 C   0  0  2  0  0  0  0  0  0  0  0  0
   28.2022   10.0845    7.5540 O   0  0  0  0  0  0  0  0  0  0  0  0
   26.9045   10.2184    9.5422 C   0  0  1  0  0  0  0  0  0  0  0  0
   23.8595    7.6037    6.0165 N   0  0  0  0  0  0  0  0  0  0  0  0
   24.0328   13.0751   -1.6278 O   0  0  0  0  0  0  0  0  0  0  0  0
   25.4071   10.2607   10.0385 C   0  0  2  0  0  0  0  0  0  0  0  0
   24.5421    9.0546    9.5326 C   0  0  1  0  0  0  0  0  0  0  0  0
   24.5744    9.0317    8.0890 C   0  0  1  0  0  0  0  0  0  0  0  0
   26.0048    8.9913    7.5858 O   0  0  0  0  0  0  0  0  0  0  0  0
   23.7431    7.7943    7.5315 C   0  0  0  0  0  0  0  0  0  0  0  0
   27.5092    9.0625   10.0756 N   0  0  0  0  0  0  0  0  0  0  0  0
   35.7107   10.7809    3.0963 O   0  0  0  0  0  0  0  0  0  0  0  0
   24.1670   10.8124   -1.4796 C   0  0  0  0  0  0  0  0  0  0  0  0
   25.0079    8.0838    9.9303 O   0  0  0  0  0  0  0  0  0  0  0  0
   24.9189   11.2156    9.6227 O   0  0  0  0  0  0  0  0  0  0  0  0
   26.0660   11.9818   -0.6878 C   0  0  0  0  0  0  0  0  0  0  0  0
   24.1455    9.8068   -0.5392 C   0  0  0  0  0  0  0  0  0  0  0  0
   24.4592   11.9536   -0.8571 C   0  0  1  0  0  0  0  0  0  0  0  0
   35.8823    9.3383    0.8623 F   0  0  0  0  0  0  0  0  0  0  0  0
  1  2  1  6  0  0  0
  1 10  1  0  0  0  0
  1  3  1  0  0  0  0
  3  4  1  1  0  0  0
  3  6  1  0  0  0  0
  5 46  2  0  0  0  0
  6 42  1  1  0  0  0
  6  8  1  0  0  0  0
  7 47  1  0  0  0  0
  8  9  1  0  0  0  0
  8 49  1  1  0  0  0
  9 10  1  0  0  0  0
  9 11  1  6  0  0  0
 11 12  1  0  0  0  0
 13 14  1  1  0  0  0
 13 15  1  0  0  0  0
 13 21  1  0  0  0  0
 14 46  1  0  0  0  0
 15 16  1  0  0  0  0
 16 17  1  1  0  0  0
 16 18  1  0  0  0  0
 18  2  1  6  0  0  0
 18 19  1  0  0  0  0
 19 20  1  1  0  0  0
 19 21  1  0  0  0  0
 21 22  1  6  0  0  0
 23 20  1  6  0  0  0
 23 24  1  0  0  0  0
 23 28  1  0  0  0  0
 24 25  1  6  0  0  0
 24 26  1  0  0  0  0
 26 27  1  0  0  0  0
 26 32  1  6  0  0  0
 27 28  1  0  0  0  0
 27 29  1  6  0  0  0
 29 30  1  0  0  0  0
 31 32  1  1  0  0  0
 31 33  1  0  0  0  0
 31 39  1  0  0  0  0
 33 36  1  0  0  0  0
 33 41  1  1  0  0  0
 34 40  1  0  0  0  0
 35 48  1  0  0  0  0
 36 37  1  0  0  0  0
 36 45  1  6  0  0  0
 37 38  1  0  0  0  0
 37 44  1  1  0  0  0
 38 39  1  0  0  0  0
 38 40  1  1  0  0  0
 43 47  1  0  0  0  0
 46 48  1  0  0  0  0
 48 43  1  6  0  0  0
M  END
>  <CHROM.1>
-155.15966432,-72.38158433,167.05249547,-71.37028454,-93.09970036,160.63738988
-162.05506669,47.17410445,-77.49918722,-173.35205824,-178.85363416,-158.81127380
-51.07343600,28.86439239,10.56274445,3.78549820,-0.87952149,-0.02617475,1.63785434

>  <Name>
ligand

>  <RI>
0

>  <Rbt.Current_Directory>
/home/itssahil/PROJECTS/Mol_Feturizer/New_Systems/rnas/4PDQ

>  <Rbt.Executable>
rbdock ($Id: //depot/dev/client3/rdock/2013.1/src/exe/rbdock.cxx#4 $)

>  <Rbt.Library>
libRbt.so (2013.1, Build901 2013/11/27)

>  <Rbt.Parameter_File>
/export/apps/rDock/src/rDock_2013.1_src/data/scripts/dock_solv.prm

>  <Rbt.Receptor>
prm/pocket_docking_3.prm

>  <SCORE>
-6.93701

>  <SCORE.INTER>
-3.00398

>  <SCORE.INTER.CONST>
1

>  <SCORE.INTER.POLAR>
0

>  <SCORE.INTER.ROT>
13

>  <SCORE.INTER.SOLV>
25.5609

>  <SCORE.INTER.VDW>
-22.7896

>  <SCORE.INTER.norm>
-0.0613058

>  <SCORE.INTRA>
-3.95272

>  <SCORE.INTRA.DIHEDRAL>
-17.1216

>  <SCORE.INTRA.DIHEDRAL.0>
34.5115

>  <SCORE.INTRA.POLAR>
0

>  <SCORE.INTRA.POLAR.0>
0

>  <SCORE.INTRA.REPUL>
0

>  <SCORE.INTRA.REPUL.0>
0

>  <SCORE.INTRA.SOLV>
0.775387

>  <SCORE.INTRA.SOLV.lig_0>
-122.812

>  <SCORE.INTRA.VDW>
4.22037

>  <SCORE.INTRA.VDW.0>
-7.46208

>  <SCORE.INTRA.norm>
-0.0806678

>  <SCORE.RESTR>
0.019689

>  <SCORE.RESTR.CAVITY>
0.019689

>  <SCORE.RESTR.norm>
0.000401817

>  <SCORE.SYSTEM>
0

>  <SCORE.SYSTEM.CONST>
0

>  <SCORE.SYSTEM.DIHEDRAL>
0

>  <SCORE.SYSTEM.SOLV>
0

>  <SCORE.SYSTEM.norm>
0

>  <SCORE.heavy>
49

>  <SCORE.norm>
-0.141572

>  <RMSD>
6.960

$$$$
ligand
 OpenBabel11021811513D
libRbt.so/2013.1/901 2013/11/27
 49 52  0  0  0  0  0  0  0  0999 V2000
   32.5392   10.1883    2.2180 C   0  0  2  0  0  0  0  0  0  0  0  0
   31.6328   10.9240    1.4504 O   0  0  0  0  0  0  0  0  0  0  0  0
   33.8583   11.0215    2.4253 C   0  0  2  0  0  0  0  0  0  0  0  0
   33.5168   12.3310    3.1189 N   0  0  0  0  0  0  0  0  0  0  0  0
   26.4732    8.8590    0.0500 O   0  0  0  0  0  0  0  0  0  0  0  0
   34.5589   11.2675    1.0686 C   0  0  2  0  0  0  0  0  0  0  0  0
   24.4855   11.3557   -3.1979 N   0  0  0  0  0  0  0  0  0  0  0  0
   34.8756    9.9316    0.3783 C   0  0  2  0  0  0  0  0  0  0  0  0
   33.5675    9.0611    0.1536 C   0  0  2  0  0  0  0  0  0  0  0  0
   32.8817    8.8896    1.5103 O   0  0  0  0  0  0  0  0  0  0  0  0
   33.9028    7.6868   -0.4950 C   0  0  0  0  0  0  0  0  0  0  0  0
   32.7636    6.9766   -0.9550 N   0  0  0  0  0  0  0  0  0  0  0  0
   27.6177   11.5330   -0.0697 C   0  0  2  0  0  0  0  0  0  0  0  0
   26.2141   11.2250   -0.4722 N   0  0  0  0  0  0  0  0  0  0  0  0
   28.5429   10.3614   -0.6594 C   0  0  0  0  0  0  0  0  0  0  0  0
   30.0534   10.6216   -0.3001 C   0  0  2  0  0  0  0  0  0  0  0  0
   30.9093    9.5440   -0.8178 N   0  0  0  0  0  0  0  0  0  0  0  0
   30.2343   10.6892    1.2295 C   0  0  2  0  0  0  0  0  0  0  0  0
   29.3310   11.8334    1.8442 C   0  0  2  0  0  0  0  0  0  0  0  0
   29.5803   11.8209    3.2992 O   0  0  0  0  0  0  0  0  0  0  0  0
   27.7851   11.5087    1.5184 C   0  0  1  0  0  0  0  0  0  0  0  0
   27.0069   12.5216    2.0737 O   0  0  0  0  0  0  0  0  0  0  0  0
   28.9079   11.1844    4.1967 C   0  0  1  0  0  0  0  0  0  0  0  0
   27.5552   11.8333    4.6136 C   0  0  2  0  0  0  0  0  0  0  0  0
   27.7954   12.6780    5.6947 O   0  0  0  0  0  0  0  0  0  0  0  0
   26.8441   10.6117    5.0261 C   0  0  1  0  0  0  0  0  0  0  0  0
   27.2198    9.4710    4.0305 C   0  0  2  0  0  0  0  0  0  0  0  0
   28.5755    9.8003    3.8509 O   0  0  0  0  0  0  0  0  0  0  0  0
   26.3600    9.2918    2.7785 C   0  0  0  0  0  0  0  0  0  0  0  0
   25.0169    9.2520    3.2226 O   0  0  0  0  0  0  0  0  0  0  0  0
   26.7174    9.2515    7.0650 C   0  0  2  0  0  0  0  0  0  0  0  0
   27.2789   10.3220    6.4308 O   0  0  0  0  0  0  0  0  0  0  0  0
   25.2368    9.4148    7.2444 C   0  0  1  0  0  0  0  0  0  0  0  0
   27.1560    8.6331   11.6579 N   0  0  0  0  0  0  0  0  0  0  0  0
   23.5427    8.7825    0.1042 O   0  0  0  0  0  0  0  0  0  0  0  0
   24.6640    8.1697    8.0265 C   0  0  2  0  0  0  0  0  0  0  0  0
   25.3457    7.9328    9.4186 C   0  0  1  0  0  0  0  0  0  0  0  0
   26.7666    7.7689    9.2192 C   0  0  1  0  0  0  0  0  0  0  0  0
   27.3424    8.9543    8.4680 O   0  0  0  0  0  0  0  0  0  0  0  0
   27.5068    7.5691   10.6139 C   0  0  0  0  0  0  0  0  0  0  0  0
   24.9673   10.5704    8.0048 N   0  0  0  0  0  0  0  0  0  0  0  0
   35.5326   11.8378    1.2499 O   0  0  0  0  0  0  0  0  0  0  0  0
   23.7051   10.8502   -0.8222 C   0  0  0  0  0  0  0  0  0  0  0  0
   25.1664    8.8599   10.0712 O   0  0  0  0  0  0  0  0  0  0  0  0
   24.8629    7.2283    7.3960 O   0  0  0  0  0  0  0  0  0  0  0  0
   25.7725    9.7965   -0.3572 C   0  0  0  0  0  0  0  0  0  0  0  0
   23.5543   11.2425   -2.1335 C   0  0  0  0  0  0  0  0  0  0  0  0
   24.2322    9.6265   -0.8154 C   0  0  1  0  0  0  0  0  0  0  0  0
   35.7686    9.1848    1.1671 F   0  0  0  0  0  0  0  0  0  0  0  0
  1  2  1  6  0  0  0
  1 10  1  0  0  0  0
  1  3  1  0  0  0  0
  3  4  1  6  0  0  0
  3  6  1  0  0  0  0
  5 46  2  0  0  0  0
  6 42  1  1  0  0  0
  6  8  1  0  0  0  0
  7 47  1  0  0  0  0
  8  9  1  0  0  0  0
  8 49  1  1  0  0  0
  9 10  1  0  0  0  0
  9 11  1  1  0  0  0
 11 12  1  0  0  0  0
 13 14  1  1  0  0  0
 13 15  1  0  0  0  0
 13 21  1  0  0  0  0
 14 46  1  0  0  0  0
 15 16  1  0  0  0  0
 16 17  1  1  0  0  0
 16 18  1  0  0  0  0
 18  2  1  6  0  0  0
 18 19  1  0  0  0  0
 19 20  1  1  0  0  0
 19 21  1  0  0  0  0
 21 22  1  1  0  0  0
 23 20  1  6  0  0  0
 23 24  1  0  0  0  0
 23 28  1  0  0  0  0
 24 25  1  1  0  0  0
 24 26  1  0  0  0  0
 26 27  1  0  0  0  0
 26 32  1  1  0  0  0
 27 28  1  0  0  0  0
 27 29  1  6  0  0  0
 29 30  1  0  0  0  0
 31 32  1  1  0  0  0
 31 33  1  0  0  0  0
 31 39  1  0  0  0  0
 33 36  1  0  0  0  0
 33 41  1  1  0  0  0
 34 40  1  0  0  0  0
 35 48  1  0  0  0  0
 36 37  1  0  0  0  0
 36 45  1  6  0  0  0
 37 38  1  0  0  0  0
 37 44  1  1  0  0  0
 38 39  1  0  0  0  0
 38 40  1  1  0  0  0
 43 47  1  0  0  0  0
 46 48  1  0  0  0  0
 48 43  1  1  0  0  0
M  END
>  <CHROM.1>
-166.63259470,-124.73132640,-168.46776050,42.38305929,-93.16632986,-78.18016803
177.69829887,-50.27479898,-63.05441511,-50.93183882,-56.79679094,-134.21337618
42.88841231,28.51480032,9.99803034,3.09717108,-0.88011938,0.00234044,1.72049152

>  <Name>
ligand

>  <RI>
0

>  <Rbt.Current_Directory>
/home/itssahil/PROJECTS/Mol_Feturizer/New_Systems/rnas/4PDQ

>  <Rbt.Executable>
rbdock ($Id: //depot/dev/client3/rdock/2013.1/src/exe/rbdock.cxx#4 $)

>  <Rbt.Library>
libRbt.so (2013.1, Build901 2013/11/27)

>  <Rbt.Parameter_File>
/export/apps/rDock/src/rDock_2013.1_src/data/scripts/dock_solv.prm

>  <Rbt.Receptor>
prm/pocket_docking_2.prm

>  <SCORE>
12.0421

>  <SCORE.INTER>
5.78163

>  <SCORE.INTER.CONST>
1

>  <SCORE.INTER.POLAR>
0

>  <SCORE.INTER.ROT>
13

>  <SCORE.INTER.SOLV>
19.0448

>  <SCORE.INTER.VDW>
-14.7605

>  <SCORE.INTER.norm>
0.117992

>  <SCORE.INTRA>
3.81908

>  <SCORE.INTRA.DIHEDRAL>
-12.7708

>  <SCORE.INTRA.DIHEDRAL.0>
34.5115

>  <SCORE.INTRA.POLAR>
0

>  <SCORE.INTRA.POLAR.0>
0

>  <SCORE.INTRA.REPUL>
0

>  <SCORE.INTRA.REPUL.0>
0

>  <SCORE.INTRA.SOLV>
6.14068

>  <SCORE.INTRA.SOLV.lig_0>
-122.812

>  <SCORE.INTRA.VDW>
7.13416

>  <SCORE.INTRA.VDW.0>
-7.46208

>  <SCORE.INTRA.norm>
0.0779405

>  <SCORE.RESTR>
2.44135

>  <SCORE.RESTR.CAVITY>
2.44135

>  <SCORE.RESTR.norm>
0.0498234

>  <SCORE.SYSTEM>
0

>  <SCORE.SYSTEM.CONST>
0

>  <SCORE.SYSTEM.DIHEDRAL>
0

>  <SCORE.SYSTEM.SOLV>
0

>  <SCORE.SYSTEM.norm>
0

>  <SCORE.heavy>
49

>  <SCORE.norm>
0.245756

>  <RMSD>
7.006

$$$$
ligand
 OpenBabel11021811513D
libRbt.so/2013.1/901 2013/11/27
 49 52  0  0  0  0  0  0  0  0999 V2000
   32.9468   10.3465   -0.3984 C   0  0  2  0  0  0  0  0  0  0  0  0
   31.9371   11.0082    0.3050 O   0  0  0  0  0  0  0  0  0  0  0  0
   33.6012    9.2483    0.5197 C   0  0  2  0  0  0  0  0  0  0  0  0
   32.5295    8.2636    0.9603 N   0  0  0  0  0  0  0  0  0  0  0  0
   26.2805    9.5987    0.8854 O   0  0  0  0  0  0  0  0  0  0  0  0
   34.2968    9.9061    1.7343 C   0  0  2  0  0  0  0  0  0  0  0  0
   24.5522    7.9541    1.5828 N   0  0  0  0  0  0  0  0  0  0  0  0
   35.3606   10.9106    1.2642 C   0  0  2  0  0  0  0  0  0  0  0  0
   34.7373   12.0345    0.3326 C   0  0  2  0  0  0  0  0  0  0  0  0
   34.0163   11.3369   -0.8224 O   0  0  0  0  0  0  0  0  0  0  0  0
   35.8293   13.0153   -0.1845 C   0  0  0  0  0  0  0  0  0  0  0  0
   36.7662   12.4169   -1.0666 N   0  0  0  0  0  0  0  0  0  0  0  0
   27.7212   11.8657   -0.2369 C   0  0  2  0  0  0  0  0  0  0  0  0
   26.2646   11.6302   -0.4602 N   0  0  0  0  0  0  0  0  0  0  0  0
   28.5116   10.9602   -1.3008 C   0  0  0  0  0  0  0  0  0  0  0  0
   30.0650   11.1673   -1.1509 C   0  0  2  0  0  0  0  0  0  0  0  0
   30.8013   10.3275   -2.1072 N   0  0  0  0  0  0  0  0  0  0  0  0
   30.5191   10.7894    0.2731 C   0  0  2  0  0  0  0  0  0  0  0  0
   29.7545   11.6623    1.3484 C   0  0  2  0  0  0  0  0  0  0  0  0
   30.2616   11.2328    2.6667 O   0  0  0  0  0  0  0  0  0  0  0  0
   28.1715   11.3822    1.2171 C   0  0  1  0  0  0  0  0  0  0  0  0
   27.5178   12.1525    2.1757 O   0  0  0  0  0  0  0  0  0  0  0  0
   29.5767   11.0736    3.7476 C   0  0  1  0  0  0  0  0  0  0  0  0
   30.2339   10.1765    4.8375 C   0  0  2  0  0  0  0  0  0  0  0  0
   29.8144    8.8648    4.6292 O   0  0  0  0  0  0  0  0  0  0  0  0
   29.5947   10.7695    6.0240 C   0  0  1  0  0  0  0  0  0  0  0  0
   29.5185   12.3134    5.8145 C   0  0  2  0  0  0  0  0  0  0  0  0
   29.2209   12.3146    4.4397 O   0  0  0  0  0  0  0  0  0  0  0  0
   30.6965   13.1663    6.2876 C   0  0  0  0  0  0  0  0  0  0  0  0
   31.7871   12.8357    5.4485 O   0  0  0  0  0  0  0  0  0  0  0  0
   27.4676   10.4712    7.2113 C   0  0  2  0  0  0  0  0  0  0  0  0
   28.2430   10.1326    6.1402 O   0  0  0  0  0  0  0  0  0  0  0  0
   28.2133   10.3522    8.5078 C   0  0  1  0  0  0  0  0  0  0  0  0
   22.8892    9.4553    9.5107 N   0  0  0  0  0  0  0  0  0  0  0  0
   23.7205   11.2845   -1.1086 O   0  0  0  0  0  0  0  0  0  0  0  0
   27.2456   10.7077    9.7025 C   0  0  2  0  0  0  0  0  0  0  0  0
   25.9520    9.8226    9.7495 C   0  0  1  0  0  0  0  0  0  0  0  0
   25.2474    9.9612    8.4966 C   0  0  1  0  0  0  0  0  0  0  0  0
   26.1572    9.6250    7.3303 O   0  0  0  0  0  0  0  0  0  0  0  0
   23.9470    9.0437    8.4828 C   0  0  0  0  0  0  0  0  0  0  0  0
   28.6611    9.0279    8.6873 N   0  0  0  0  0  0  0  0  0  0  0  0
   34.7981    9.0933    2.3623 O   0  0  0  0  0  0  0  0  0  0  0  0
   23.8839    9.0745   -0.6095 C   0  0  0  0  0  0  0  0  0  0  0  0
   26.2684    8.7268    9.8788 O   0  0  0  0  0  0  0  0  0  0  0  0
   26.8974   11.7959    9.5697 O   0  0  0  0  0  0  0  0  0  0  0  0
   25.6670   10.4141    0.1822 C   0  0  0  0  0  0  0  0  0  0  0  0
   23.7228    8.2286    0.4649 C   0  0  0  0  0  0  0  0  0  0  0  0
   24.0872   10.3047   -0.1397 C   0  0  1  0  0  0  0  0  0  0  0  0
   36.3610   10.2429    0.5356 F   0  0  0  0  0  0  0  0  0  0  0  0
  1  2  1  1  0  0  0
  1 10  1  0  0  0  0
  1  3  1  0  0  0  0
  3  4  1  1  0  0  0
  3  6  1  0  0  0  0
  5 46  2  0  0  0  0
  6 42  1  1  0  0  0
  6  8  1  0  0  0  0
  7 47  1  0  0  0  0
  8  9  1  0  0  0  0
  8 49  1  6  0  0  0
  9 10  1  0  0  0  0
  9 11  1  6  0  0  0
 11 12  1  0  0  0  0
 13 14  1  1  0  0  0
 13 15  1  0  0  0  0
 13 21  1  0  0  0  0
 14 46  1  0  0  0  0
 15 16  1  0  0  0  0
 16 17  1  6  0  0  0
 16 18  1  0  0  0  0
 18  2  1  6  0  0  0
 18 19  1  0  0  0  0
 19 20  1  1  0  0  0
 19 21  1  0  0  0  0
 21 22  1  1  0  0  0
 23 20  1  6  0  0  0
 23 24  1  0  0  0  0
 23 28  1  0  0  0  0
 24 25  1  6  0  0  0
 24 26  1  0  0  0  0
 26 27  1  0  0  0  0
 26 32  1  6  0  0  0
 27 28  1  0  0  0  0
 27 29  1  6  0  0  0
 29 30  1  0  0  0  0
 31 32  1  6  0  0  0
 31 33  1  0  0  0  0
 31 39  1  0  0  0  0
 33 36  1  0  0  0  0
 33 41  1  1  0  0  0
 34 40  1  0  0  0  0
 35 48  1  0  0  0  0
 36 37  1  0  0  0  0
 36 45  1  6  0  0  0
 37 38  1  0  0  0  0
 37 44  1  6  0  0  0
 38 39  1  0  0  0  0
 38 40  1  1  0  0  0
 43 47  1  0  0  0  0
 46 48  1  0  0  0  0
 48 43  1  6  0  0  0
M  END
>  <CHROM.1>
-98.24100522,-65.54863070,66.40551586,82.60813971,-140.28101867,160.10346680
176.91883911,67.66117668,-50.27560354,65.07127840,-56.23015995,-156.04351935
-172.45654125,29.27153115,10.57963126,3.14669534,0.77492561,-0.12186716,-1.55769523

>  <Name>
ligand

>  <RI>
0

>  <Rbt.Current_Directory>
/home/itssahil/PROJECTS/Mol_Feturizer/New_Systems/rnas/4PDQ

>  <Rbt.Executable>
rbdock ($Id: //depot/dev/client3/rdock/2013.1/src/exe/rbdock.cxx#4 $)

>  <Rbt.Library>
libRbt.so (2013.1, Build901 2013/11/27)

>  <Rbt.Parameter_File>
/export/apps/rDock/src/rDock_2013.1_src/data/scripts/dock_solv.prm

>  <Rbt.Receptor>
prm/pocket_docking_2.prm

>  <SCORE>
0.725384

>  <SCORE.INTER>
-5.66841

>  <SCORE.INTER.CONST>
1

>  <SCORE.INTER.POLAR>
0

>  <SCORE.INTER.ROT>
13

>  <SCORE.INTER.SOLV>
25.6208

>  <SCORE.INTER.VDW>
-24.5859

>  <SCORE.INTER.norm>
-0.115682

>  <SCORE.INTRA>
0.12847

>  <SCORE.INTRA.DIHEDRAL>
-16.5393

>  <SCORE.INTRA.DIHEDRAL.0>
34.5115

>  <SCORE.INTRA.POLAR>
0

>  <SCORE.INTRA.POLAR.0>
0

>  <SCORE.INTRA.REPUL>
0

>  <SCORE.INTRA.REPUL.0>
0

>  <SCORE.INTRA.SOLV>
3.88126

>  <SCORE.INTRA.SOLV.lig_0>
-122.812

>  <SCORE.INTRA.VDW>
6.45747

>  <SCORE.INTRA.VDW.0>
-7.46208

>  <SCORE.INTRA.norm>
0.00262183

>  <SCORE.RESTR>
6.26533

>  <SCORE.RESTR.CAVITY>
6.26533

>  <SCORE.RESTR.norm>
0.127864

>  <SCORE.SYSTEM>
0

>  <SCORE.SYSTEM.CONST>
0

>  <SCORE.SYSTEM.DIHEDRAL>
0

>  <SCORE.SYSTEM.SOLV>
0

>  <SCORE.SYSTEM.norm>
0

>  <SCORE.heavy>
49

>  <SCORE.norm>
0.0148038

>  <RMSD>
7.015

$$$$
ligand
 OpenBabel11021811513D
libRbt.so/2013.1/901 2013/11/27
 49 52  0  0  0  0  0  0  0  0999 V2000
   28.2356    2.8841    1.4525 C   0  0  2  0  0  0  0  0  0  0  0  0
   28.8386    4.1203    1.2074 O   0  0  0  0  0  0  0  0  0  0  0  0
   26.8594    2.8048    0.6929 C   0  0  2  0  0  0  0  0  0  0  0  0
   27.1009    2.9905   -0.7969 N   0  0  0  0  0  0  0  0  0  0  0  0
   31.0797    5.3011   -3.9544 O   0  0  0  0  0  0  0  0  0  0  0  0
   25.8788    3.8671    1.2423 C   0  0  2  0  0  0  0  0  0  0  0  0
   34.8498    7.7747   -6.9395 N   0  0  0  0  0  0  0  0  0  0  0  0
   25.6663    3.6714    2.7517 C   0  0  2  0  0  0  0  0  0  0  0  0
   27.0350    3.7431    3.5525 C   0  0  2  0  0  0  0  0  0  0  0  0
   27.9885    2.7151    2.9408 O   0  0  0  0  0  0  0  0  0  0  0  0
   26.8189    3.4888    5.0725 C   0  0  0  0  0  0  0  0  0  0  0  0
   27.9975    3.6293    5.8505 N   0  0  0  0  0  0  0  0  0  0  0  0
   31.9518    5.8876   -1.2396 C   0  0  2  0  0  0  0  0  0  0  0  0
   32.7671    6.2072   -2.4479 N   0  0  0  0  0  0  0  0  0  0  0  0
   31.7233    4.2988   -1.2343 C   0  0  0  0  0  0  0  0  0  0  0  0
   30.8872    3.8689    0.0284 C   0  0  2  0  0  0  0  0  0  0  0  0
   30.6538    2.4172    0.0341 N   0  0  0  0  0  0  0  0  0  0  0  0
   29.5183    4.5780    0.0291 C   0  0  2  0  0  0  0  0  0  0  0  0
   29.7079    6.1486    0.0197 C   0  0  2  0  0  0  0  0  0  0  0  0
   28.3508    6.7295    0.0287 O   0  0  0  0  0  0  0  0  0  0  0  0
   30.5093    6.5689   -1.3155 C   0  0  1  0  0  0  0  0  0  0  0  0
   30.6589    7.9535   -1.3090 O   0  0  0  0  0  0  0  0  0  0  0  0
   27.5359    6.7830    1.0267 C   0  0  1  0  0  0  0  0  0  0  0  0
   27.7010    8.0121    1.9682 C   0  0  2  0  0  0  0  0  0  0  0  0
   28.5888    7.6637    2.9833 O   0  0  0  0  0  0  0  0  0  0  0  0
   26.3167    8.0971    2.4625 C   0  0  1  0  0  0  0  0  0  0  0  0
   25.3561    7.7831    1.2741 C   0  0  2  0  0  0  0  0  0  0  0  0
   26.1166    6.7690    0.6644 O   0  0  0  0  0  0  0  0  0  0  0  0
   24.8874    8.9449    0.3970 C   0  0  0  0  0  0  0  0  0  0  0  0
   23.9559    8.3997   -0.5183 O   0  0  0  0  0  0  0  0  0  0  0  0
   25.0575    7.1038    4.3202 C   0  0  2  0  0  0  0  0  0  0  0  0
   26.2033    7.1028    3.5782 O   0  0  0  0  0  0  0  0  0  0  0  0
   24.7233    8.4708    4.8404 C   0  0  1  0  0  0  0  0  0  0  0  0
   24.1878    3.5740    7.1019 N   0  0  0  0  0  0  0  0  0  0  0  0
   32.6054    5.8748   -6.2349 O   0  0  0  0  0  0  0  0  0  0  0  0
   23.4212    8.3890    5.7280 C   0  0  2  0  0  0  0  0  0  0  0  0
   23.5356    7.3787    6.9218 C   0  0  1  0  0  0  0  0  0  0  0  0
   23.8475    6.0704    6.3961 C   0  0  1  0  0  0  0  0  0  0  0  0
   25.0970    6.1219    5.5375 O   0  0  0  0  0  0  0  0  0  0  0  0
   24.0167    5.0191    7.5790 C   0  0  0  0  0  0  0  0  0  0  0  0
   25.7738    8.9498    5.6487 N   0  0  0  0  0  0  0  0  0  0  0  0
   24.8759    3.7625    0.7043 O   0  0  0  0  0  0  0  0  0  0  0  0
   33.3117    7.5819   -4.9133 C   0  0  0  0  0  0  0  0  0  0  0  0
   24.3941    7.7200    7.6030 O   0  0  0  0  0  0  0  0  0  0  0  0
   22.5576    8.0200    5.0638 O   0  0  0  0  0  0  0  0  0  0  0  0
   32.1822    5.8391   -3.7788 C   0  0  0  0  0  0  0  0  0  0  0  0
   34.4647    7.9267   -5.5825 C   0  0  0  0  0  0  0  0  0  0  0  0
   33.1731    6.2587   -4.9844 C   0  0  1  0  0  0  0  0  0  0  0  0
   25.0823    2.4154    2.9942 F   0  0  0  0  0  0  0  0  0  0  0  0
  1  2  1  1  0  0  0
  1 10  1  0  0  0  0
  1  3  1  0  0  0  0
  3  4  1  6  0  0  0
  3  6  1  0  0  0  0
  5 46  2  0  0  0  0
  6 42  1  6  0  0  0
  6  8  1  0  0  0  0
  7 47  1  0  0  0  0
  8  9  1  0  0  0  0
  8 49  1  6  0  0  0
  9 10  1  0  0  0  0
  9 11  1  1  0  0  0
 11 12  1  0  0  0  0
 13 14  1  6  0  0  0
 13 15  1  0  0  0  0
 13 21  1  0  0  0  0
 14 46  1  0  0  0  0
 15 16  1  0  0  0  0
 16 17  1  6  0  0  0
 16 18  1  0  0  0  0
 18  2  1  1  0  0  0
 18 19  1  0  0  0  0
 19 20  1  6  0  0  0
 19 21  1  0  0  0  0
 21 22  1  1  0  0  0
 23 20  1  6  0  0  0
 23 24  1  0  0  0  0
 23 28  1  0  0  0  0
 24 25  1  1  0  0  0
 24 26  1  0  0  0  0
 26 27  1  0  0  0  0
 26 32  1  1  0  0  0
 27 28  1  0  0  0  0
 27 29  1  6  0  0  0
 29 30  1  0  0  0  0
 31 32  1  1  0  0  0
 31 33  1  0  0  0  0
 31 39  1  0  0  0  0
 33 36  1  0  0  0  0
 33 41  1  1  0  0  0
 34 40  1  0  0  0  0
 35 48  1  0  0  0  0
 36 37  1  0  0  0  0
 36 45  1  6  0  0  0
 37 38  1  0  0  0  0
 37 44  1  1  0  0  0
 38 39  1  0  0  0  0
 38 40  1  1  0  0  0
 43 47  1  0  0  0  0
 46 48  1  0  0  0  0
 48 43  1  6  0  0  0
M  END
>  <CHROM.1>
-75.83496630,-74.73246211,-176.02938623,59.86684885,74.25366702,86.47135199
171.93674950,-175.36436967,-51.89914749,173.27556770,61.80114046,-81.21652669
-2.02247661,27.79566206,5.86242414,1.32592336,-0.25879423,-0.83888113,2.80300379

>  <Name>
ligand

>  <RI>
0

>  <Rbt.Current_Directory>
/home/itssahil/PROJECTS/Mol_Feturizer/New_Systems/rnas/4PDQ

>  <Rbt.Executable>
rbdock ($Id: //depot/dev/client3/rdock/2013.1/src/exe/rbdock.cxx#4 $)

>  <Rbt.Library>
libRbt.so (2013.1, Build901 2013/11/27)

>  <Rbt.Parameter_File>
/export/apps/rDock/src/rDock_2013.1_src/data/scripts/dock_solv.prm

>  <Rbt.Receptor>
prm/pocket_docking_8.prm

>  <SCORE>
-16.0011

>  <SCORE.INTER>
-5.65473

>  <SCORE.INTER.CONST>
1

>  <SCORE.INTER.POLAR>
0

>  <SCORE.INTER.ROT>
13

>  <SCORE.INTER.SOLV>
15.3983

>  <SCORE.INTER.VDW>
-21.1693

>  <SCORE.INTER.norm>
-0.115403

>  <SCORE.INTRA>
-10.3463

>  <SCORE.INTRA.DIHEDRAL>
-25.173

>  <SCORE.INTRA.DIHEDRAL.0>
34.5115

>  <SCORE.INTRA.POLAR>
0

>  <SCORE.INTRA.POLAR.0>
0

>  <SCORE.INTRA.REPUL>
0

>  <SCORE.INTRA.REPUL.0>
0

>  <SCORE.INTRA.SOLV>
3.36765

>  <SCORE.INTRA.SOLV.lig_0>
-122.812

>  <SCORE.INTRA.VDW>
0.556371

>  <SCORE.INTRA.VDW.0>
-7.46208

>  <SCORE.INTRA.norm>
-0.211149

>  <SCORE.RESTR>
0

>  <SCORE.RESTR.CAVITY>
0

>  <SCORE.RESTR.norm>
0

>  <SCORE.SYSTEM>
0

>  <SCORE.SYSTEM.CONST>
0

>  <SCORE.SYSTEM.DIHEDRAL>
0

>  <SCORE.SYSTEM.SOLV>
0

>  <SCORE.SYSTEM.norm>
0

>  <SCORE.heavy>
49

>  <SCORE.norm>
-0.326552

>  <RMSD>
7.015

$$$$
ligand
 OpenBabel11021811513D
libRbt.so/2013.1/901 2013/11/27
 49 52  0  0  0  0  0  0  0  0999 V2000
   30.0351    9.1531    4.2961 C   0  0  2  0  0  0  0  0  0  0  0  0
   29.7370   10.1016    3.3145 O   0  0  0  0  0  0  0  0  0  0  0  0
   31.2673    9.6384    5.1466 C   0  0  2  0  0  0  0  0  0  0  0  0
   30.9349   10.9771    5.7868 N   0  0  0  0  0  0  0  0  0  0  0  0
   25.8951    9.6594   -0.9319 O   0  0  0  0  0  0  0  0  0  0  0  0
   32.5299    9.7355    4.2587 C   0  0  2  0  0  0  0  0  0  0  0  0
   26.3507   12.4987   -3.1906 N   0  0  0  0  0  0  0  0  0  0  0  0
   32.8338    8.3771    3.6077 C   0  0  2  0  0  0  0  0  0  0  0  0
   31.6110    7.8533    2.7416 C   0  0  2  0  0  0  0  0  0  0  0  0
   30.3769    7.8249    3.6451 O   0  0  0  0  0  0  0  0  0  0  0  0
   31.9048    6.4523    2.1311 C   0  0  0  0  0  0  0  0  0  0  0  0
   30.8760    5.9702    1.2807 N   0  0  0  0  0  0  0  0  0  0  0  0
   26.3156   11.6521    1.1483 C   0  0  2  0  0  0  0  0  0  0  0  0
   25.2864   11.7925    0.0768 N   0  0  0  0  0  0  0  0  0  0  0  0
   27.7346   11.4839    0.4172 C   0  0  0  0  0  0  0  0  0  0  0  0
   28.8878   11.3532    1.4808 C   0  0  2  0  0  0  0  0  0  0  0  0
   30.1912   11.1782    0.8232 N   0  0  0  0  0  0  0  0  0  0  0  0
   28.6388   10.1340    2.3911 C   0  0  2  0  0  0  0  0  0  0  0  0
   27.2435   10.2664    3.1250 C   0  0  2  0  0  0  0  0  0  0  0  0
   27.1048    9.0640    3.9704 O   0  0  0  0  0  0  0  0  0  0  0  0
   26.0750   10.3325    2.0152 C   0  0  1  0  0  0  0  0  0  0  0  0
   24.8562   10.4407    2.6804 O   0  0  0  0  0  0  0  0  0  0  0  0
   26.8419    9.0284    5.2323 C   0  0  1  0  0  0  0  0  0  0  0  0
   25.4860    9.6650    5.6578 C   0  0  2  0  0  0  0  0  0  0  0  0
   25.7126   11.0062    5.9575 O   0  0  0  0  0  0  0  0  0  0  0  0
   25.2427    8.8702    6.8731 C   0  0  1  0  0  0  0  0  0  0  0  0
   25.6928    7.4032    6.5927 C   0  0  2  0  0  0  0  0  0  0  0  0
   26.8348    7.6878    5.8224 O   0  0  0  0  0  0  0  0  0  0  0  0
   24.6663    6.4309    6.0097 C   0  0  0  0  0  0  0  0  0  0  0  0
   23.6174    6.3475    6.9561 O   0  0  0  0  0  0  0  0  0  0  0  0
   26.1176    8.8686    9.1662 C   0  0  2  0  0  0  0  0  0  0  0  0
   26.0320    9.5196    7.9693 O   0  0  0  0  0  0  0  0  0  0  0  0
   24.7773    8.7174    9.8234 C   0  0  1  0  0  0  0  0  0  0  0  0
   27.7973   11.0933   12.8017 N   0  0  0  0  0  0  0  0  0  0  0  0
   22.7770   10.5118   -1.5093 O   0  0  0  0  0  0  0  0  0  0  0  0
   24.9568    8.0052   11.2200 C   0  0  2  0  0  0  0  0  0  0  0  0
   25.9415    8.7517   12.1853 C   0  0  1  0  0  0  0  0  0  0  0  0
   27.2252    8.8763   11.5356 C   0  0  1  0  0  0  0  0  0  0  0  0
   27.0799    9.5585   10.1885 O   0  0  0  0  0  0  0  0  0  0  0  0
   28.2464    9.6688   12.4641 C   0  0  0  0  0  0  0  0  0  0  0  0
   24.2048    9.9853   10.0496 N   0  0  0  0  0  0  0  0  0  0  0  0
   33.4178   10.0497    4.9062 O   0  0  0  0  0  0  0  0  0  0  0  0
   24.0112   12.2914   -2.1946 C   0  0  0  0  0  0  0  0  0  0  0  0
   25.5235    9.8016   12.3869 O   0  0  0  0  0  0  0  0  0  0  0  0
   25.4027    6.9611   11.0349 O   0  0  0  0  0  0  0  0  0  0  0  0
   25.1945   10.6815   -0.9263 C   0  0  0  0  0  0  0  0  0  0  0  0
   24.9357   12.5992   -3.1675 C   0  0  0  0  0  0  0  0  0  0  0  0
   24.0307   10.9721   -2.0091 C   0  0  1  0  0  0  0  0  0  0  0  0
   33.1084    7.4206    4.6012 F   0  0  0  0  0  0  0  0  0  0  0  0
  1  2  1  6  0  0  0
  1 10  1  0  0  0  0
  1  3  1  0  0  0  0
  3  4  1  6  0  0  0
  3  6  1  0  0  0  0
  5 46  2  0  0  0  0
  6 42  1  1  0  0  0
  6  8  1  0  0  0  0
  7 47  1  0  0  0  0
  8  9  1  0  0  0  0
  8 49  1  1  0  0  0
  9 10  1  0  0  0  0
  9 11  1  1  0  0  0
 11 12  1  0  0  0  0
 13 14  1  6  0  0  0
 13 15  1  0  0  0  0
 13 21  1  0  0  0  0
 14 46  1  0  0  0  0
 15 16  1  0  0  0  0
 16 17  1  6  0  0  0
 16 18  1  0  0  0  0
 18  2  1  1  0  0  0
 18 19  1  0  0  0  0
 19 20  1  1  0  0  0
 19 21  1  0  0  0  0
 21 22  1  1  0  0  0
 23 20  1  6  0  0  0
 23 24  1  0  0  0  0
 23 28  1  0  0  0  0
 24 25  1  1  0  0  0
 24 26  1  0  0  0  0
 26 27  1  0  0  0  0
 26 32  1  1  0  0  0
 27 28  1  0  0  0  0
 27 29  1  6  0  0  0
 29 30  1  0  0  0  0
 31 32  1  6  0  0  0
 31 33  1  0  0  0  0
 31 39  1  0  0  0  0
 33 36  1  0  0  0  0
 33 41  1  1  0  0  0
 34 40  1  0  0  0  0
 35 48  1  0  0  0  0
 36 37  1  0  0  0  0
 36 45  1  6  0  0  0
 37 38  1  0  0  0  0
 37 44  1  6  0  0  0
 38 39  1  0  0  0  0
 38 40  1  1  0  0  0
 43 47  1  0  0  0  0
 46 48  1  0  0  0  0
 48 43  1  1  0  0  0
M  END
>  <CHROM.1>
-174.34398416,-175.75298760,-176.43153649,57.30673545,127.13141826,60.37293669
-171.47683968,-60.92876533,-63.17502759,-60.54778239,-66.00480145,-154.18102661
93.24546795,27.39452355,9.49669634,4.71841303,-1.53843568,-0.17114223,1.74790941

>  <Name>
ligand

>  <RI>
0

>  <Rbt.Current_Directory>
/home/itssahil/PROJECTS/Mol_Feturizer/New_Systems/rnas/4PDQ

>  <Rbt.Executable>
rbdock ($Id: //depot/dev/client3/rdock/2013.1/src/exe/rbdock.cxx#4 $)

>  <Rbt.Library>
libRbt.so (2013.1, Build901 2013/11/27)

>  <Rbt.Parameter_File>
/export/apps/rDock/src/rDock_2013.1_src/data/scripts/dock_solv.prm

>  <Rbt.Receptor>
prm/pocket_docking_5.prm

>  <SCORE>
-9.6822

>  <SCORE.INTER>
-2.02565

>  <SCORE.INTER.CONST>
1

>  <SCORE.INTER.POLAR>
0

>  <SCORE.INTER.ROT>
13

>  <SCORE.INTER.SOLV>
21.8055

>  <SCORE.INTER.VDW>
-20.8856

>  <SCORE.INTER.norm>
-0.0413398

>  <SCORE.INTRA>
-7.65773

>  <SCORE.INTRA.DIHEDRAL>
-23.1633

>  <SCORE.INTRA.DIHEDRAL.0>
34.5115

>  <SCORE.INTRA.POLAR>
0

>  <SCORE.INTRA.POLAR.0>
0

>  <SCORE.INTRA.REPUL>
0.0165303

>  <SCORE.INTRA.REPUL.0>
0

>  <SCORE.INTRA.SOLV>
0.644077

>  <SCORE.INTRA.SOLV.lig_0>
-122.812

>  <SCORE.INTRA.VDW>
3.51923

>  <SCORE.INTRA.VDW.0>
-7.46208

>  <SCORE.INTRA.norm>
-0.15628

>  <SCORE.RESTR>
0.00117037

>  <SCORE.RESTR.CAVITY>
0.00117037

>  <SCORE.RESTR.norm>
2.38851e-05

>  <SCORE.SYSTEM>
0

>  <SCORE.SYSTEM.CONST>
0

>  <SCORE.SYSTEM.DIHEDRAL>
0

>  <SCORE.SYSTEM.SOLV>
0

>  <SCORE.SYSTEM.norm>
0

>  <SCORE.heavy>
49

>  <SCORE.norm>
-0.197596

>  <RMSD>
7.039

$$$$
ligand
 OpenBabel11021811513D
libRbt.so/2013.1/901 2013/11/27
 49 52  0  0  0  0  0  0  0  0999 V2000
   32.2778   10.1045    1.9223 C   0  0  2  0  0  0  0  0  0  0  0  0
   31.5091   10.9399    1.1078 O   0  0  0  0  0  0  0  0  0  0  0  0
   33.5816   10.8597    2.3771 C   0  0  2  0  0  0  0  0  0  0  0  0
   33.1898   12.1208    3.1311 N   0  0  0  0  0  0  0  0  0  0  0  0
   25.8851    9.8442    0.1443 O   0  0  0  0  0  0  0  0  0  0  0  0
   34.4693   11.1866    1.1535 C   0  0  2  0  0  0  0  0  0  0  0  0
   24.8741    7.9457   -1.0820 N   0  0  0  0  0  0  0  0  0  0  0  0
   34.8353    9.9000    0.3971 C   0  0  2  0  0  0  0  0  0  0  0  0
   33.5435    9.1086   -0.0767 C   0  0  2  0  0  0  0  0  0  0  0  0
   32.6728    8.8552    1.1555 O   0  0  0  0  0  0  0  0  0  0  0  0
   33.9210    7.7795   -0.7927 C   0  0  0  0  0  0  0  0  0  0  0  0
   34.5803    6.8436    0.0459 N   0  0  0  0  0  0  0  0  0  0  0  0
   27.5590   12.2072   -0.1544 C   0  0  2  0  0  0  0  0  0  0  0  0
   26.1648   12.1204   -0.6795 N   0  0  0  0  0  0  0  0  0  0  0  0
   28.4837   11.3303   -1.1303 C   0  0  0  0  0  0  0  0  0  0  0  0
   29.9852   11.3868   -0.6608 C   0  0  2  0  0  0  0  0  0  0  0  0
   30.8398   10.5705   -1.5357 N   0  0  0  0  0  0  0  0  0  0  0  0
   30.1151   10.8498    0.7785 C   0  0  2  0  0  0  0  0  0  0  0  0
   29.2111   11.6911    1.7674 C   0  0  2  0  0  0  0  0  0  0  0  0
   29.4106   11.1074    3.1086 O   0  0  0  0  0  0  0  0  0  0  0  0
   27.6718   11.5633    1.3028 C   0  0  1  0  0  0  0  0  0  0  0  0
   26.8926   12.3031    2.1889 O   0  0  0  0  0  0  0  0  0  0  0  0
   28.5157   10.9343    4.0208 C   0  0  1  0  0  0  0  0  0  0  0  0
   27.7164    9.6005    3.9382 C   0  0  2  0  0  0  0  0  0  0  0  0
   26.5807    9.8237    3.1634 O   0  0  0  0  0  0  0  0  0  0  0  0
   27.3814    9.4572    5.3648 C   0  0  1  0  0  0  0  0  0  0  0  0
   28.6163    9.9125    6.2022 C   0  0  2  0  0  0  0  0  0  0  0  0
   29.0182   10.9925    5.3955 O   0  0  0  0  0  0  0  0  0  0  0  0
   29.6701    8.8651    6.5645 C   0  0  0  0  0  0  0  0  0  0  0  0
   30.3057    8.5066    5.3520 O   0  0  0  0  0  0  0  0  0  0  0  0
   25.5483   10.2077    6.8138 C   0  0  2  0  0  0  0  0  0  0  0  0
   26.1722   10.3097    5.6040 O   0  0  0  0  0  0  0  0  0  0  0  0
   25.9361   11.3191    7.7442 C   0  0  1  0  0  0  0  0  0  0  0  0
   26.9649    7.0490    9.8319 N   0  0  0  0  0  0  0  0  0  0  0  0
   23.6338   12.2340   -1.4584 O   0  0  0  0  0  0  0  0  0  0  0  0
   25.2207   11.1107    9.1351 C   0  0  2  0  0  0  0  0  0  0  0  0
   25.5318    9.7259    9.8017 C   0  0  1  0  0  0  0  0  0  0  0  0
   25.1416    8.6737    8.8929 C   0  0  1  0  0  0  0  0  0  0  0  0
   25.8164    8.8515    7.5460 O   0  0  0  0  0  0  0  0  0  0  0  0
   25.4805    7.2471    9.5118 C   0  0  0  0  0  0  0  0  0  0  0  0
   27.3285   11.3026    7.9620 N   0  0  0  0  0  0  0  0  0  0  0  0
   35.4266   11.6972    1.5131 O   0  0  0  0  0  0  0  0  0  0  0  0
   23.9256   10.0782   -2.1121 C   0  0  0  0  0  0  0  0  0  0  0  0
   26.6630    9.6587    9.9844 O   0  0  0  0  0  0  0  0  0  0  0  0
   24.0841   11.1470    8.9622 O   0  0  0  0  0  0  0  0  0  0  0  0
   25.4315   10.8327   -0.4497 C   0  0  0  0  0  0  0  0  0  0  0  0
   23.8768    8.7847   -1.6428 C   0  0  0  0  0  0  0  0  0  0  0  0
   23.9375   10.8983   -1.0621 C   0  0  1  0  0  0  0  0  0  0  0  0
   35.5874    9.0523    1.2298 F   0  0  0  0  0  0  0  0  0  0  0  0
  1  2  1  6  0  0  0
  1 10  1  0  0  0  0
  1  3  1  0  0  0  0
  3  4  1  6  0  0  0
  3  6  1  0  0  0  0
  5 46  2  0  0  0  0
  6 42  1  1  0  0  0
  6  8  1  0  0  0  0
  7 47  1  0  0  0  0
  8  9  1  0  0  0  0
  8 49  1  1  0  0  0
  9 10  1  0  0  0  0
  9 11  1  1  0  0  0
 11 12  1  0  0  0  0
 13 14  1  6  0  0  0
 13 15  1  0  0  0  0
 13 21  1  0  0  0  0
 14 46  1  0  0  0  0
 15 16  1  0  0  0  0
 16 17  1  6  0  0  0
 16 18  1  0  0  0  0
 18  2  1  1  0  0  0
 18 19  1  0  0  0  0
 19 20  1  1  0  0  0
 19 21  1  0  0  0  0
 21 22  1  1  0  0  0
 23 20  1  6  0  0  0
 23 24  1  0  0  0  0
 23 28  1  0  0  0  0
 24 25  1  6  0  0  0
 24 26  1  0  0  0  0
 26 27  1  0  0  0  0
 26 32  1  1  0  0  0
 27 28  1  0  0  0  0
 27 29  1  6  0  0  0
 29 30  1  0  0  0  0
 31 32  1  6  0  0  0
 31 33  1  0  0  0  0
 31 39  1  0  0  0  0
 33 36  1  0  0  0  0
 33 41  1  1  0  0  0
 34 40  1  0  0  0  0
 35 48  1  0  0  0  0
 36 37  1  0  0  0  0
 36 45  1  6  0  0  0
 37 38  1  0  0  0  0
 37 44  1  6  0  0  0
 38 39  1  0  0  0  0
 38 40  1  1  0  0  0
 43 47  1  0  0  0  0
 46 48  1  0  0  0  0
 48 43  1  6  0  0  0
M  END
>  <CHROM.1>
-160.40928728,-146.99947511,63.98242022,74.58731103,-141.34039046,86.81642716
171.15455493,68.45142586,99.55030572,-59.03020141,-76.97483087,-164.66204060
169.37375817,28.62969700,10.17195231,3.12290165,-0.88192181,-0.08021928,1.68809154

>  <Name>
ligand

>  <RI>
0

>  <Rbt.Current_Directory>
/home/itssahil/PROJECTS/Mol_Feturizer/New_Systems/rnas/4PDQ

>  <Rbt.Executable>
rbdock ($Id: //depot/dev/client3/rdock/2013.1/src/exe/rbdock.cxx#4 $)

>  <Rbt.Library>
libRbt.so (2013.1, Build901 2013/11/27)

>  <Rbt.Parameter_File>
/export/apps/rDock/src/rDock_2013.1_src/data/scripts/dock_solv.prm

>  <Rbt.Receptor>
prm/pocket_docking_2.prm

>  <SCORE>
11.6816

>  <SCORE.INTER>
1.54109

>  <SCORE.INTER.CONST>
1

>  <SCORE.INTER.POLAR>
0

>  <SCORE.INTER.ROT>
13

>  <SCORE.INTER.SOLV>
22.3857

>  <SCORE.INTER.VDW>
-18.7012

>  <SCORE.INTER.norm>
0.0314508

>  <SCORE.INTRA>
4.48844

>  <SCORE.INTRA.DIHEDRAL>
-10.0953

>  <SCORE.INTRA.DIHEDRAL.0>
34.5115

>  <SCORE.INTRA.POLAR>
0

>  <SCORE.INTRA.POLAR.0>
0

>  <SCORE.INTRA.REPUL>
0.0677121

>  <SCORE.INTRA.REPUL.0>
0

>  <SCORE.INTRA.SOLV>
7.92354

>  <SCORE.INTRA.SOLV.lig_0>
-122.812

>  <SCORE.INTRA.VDW>
5.23578

>  <SCORE.INTRA.VDW.0>
-7.46208

>  <SCORE.INTRA.norm>
0.0916008

>  <SCORE.RESTR>
5.65205

>  <SCORE.RESTR.CAVITY>
5.65205

>  <SCORE.RESTR.norm>
0.115348

>  <SCORE.SYSTEM>
0

>  <SCORE.SYSTEM.CONST>
0

>  <SCORE.SYSTEM.DIHEDRAL>
0

>  <SCORE.SYSTEM.SOLV>
0

>  <SCORE.SYSTEM.norm>
0

>  <SCORE.heavy>
49

>  <SCORE.norm>
0.2384

>  <RMSD>
7.043

$$$$
ligand
 OpenBabel11021811513D
libRbt.so/2013.1/901 2013/11/27
 49 52  0  0  0  0  0  0  0  0999 V2000
   33.0926    9.8543   -0.2272 C   0  0  2  0  0  0  0  0  0  0  0  0
   32.1329   10.6181    0.4420 O   0  0  0  0  0  0  0  0  0  0  0  0
   33.9175    9.0086    0.8128 C   0  0  2  0  0  0  0  0  0  0  0  0
   32.9684    8.1073    1.5869 N   0  0  0  0  0  0  0  0  0  0  0  0
   26.5776    9.2800   -0.0761 O   0  0  0  0  0  0  0  0  0  0  0  0
   34.7081    9.9414    1.7596 C   0  0  2  0  0  0  0  0  0  0  0  0
   24.3880   12.0604   -3.8190 N   0  0  0  0  0  0  0  0  0  0  0  0
   35.6446   10.8552    0.9536 C   0  0  2  0  0  0  0  0  0  0  0  0
   34.8474   11.7242   -0.1089 C   0  0  2  0  0  0  0  0  0  0  0  0
   34.0410   10.7648   -0.9862 O   0  0  0  0  0  0  0  0  0  0  0  0
   35.8078   12.6056   -0.9588 C   0  0  0  0  0  0  0  0  0  0  0  0
   36.5833   13.5130   -0.1913 N   0  0  0  0  0  0  0  0  0  0  0  0
   28.0293   11.7912   -0.3240 C   0  0  2  0  0  0  0  0  0  0  0  0
   26.5629   11.6660   -0.5711 N   0  0  0  0  0  0  0  0  0  0  0  0
   28.7575   10.7134   -1.2645 C   0  0  0  0  0  0  0  0  0  0  0  0
   30.3193   10.7942   -1.0844 C   0  0  2  0  0  0  0  0  0  0  0  0
   30.9971    9.7974   -1.9262 N   0  0  0  0  0  0  0  0  0  0  0  0
   30.7019   10.5257    0.3848 C   0  0  2  0  0  0  0  0  0  0  0  0
   29.9960   11.5701    1.3408 C   0  0  2  0  0  0  0  0  0  0  0  0
   30.4291   11.2348    2.7118 O   0  0  0  0  0  0  0  0  0  0  0  0
   28.3975   11.4216    1.1854 C   0  0  1  0  0  0  0  0  0  0  0  0
   27.7953   12.3423    2.0394 O   0  0  0  0  0  0  0  0  0  0  0  0
   29.6731   10.9511    3.7172 C   0  0  1  0  0  0  0  0  0  0  0  0
   30.4099   10.4674    5.0008 C   0  0  2  0  0  0  0  0  0  0  0  0
   30.5036    9.0787    4.9488 O   0  0  0  0  0  0  0  0  0  0  0  0
   29.4221   10.9084    5.9997 C   0  0  1  0  0  0  0  0  0  0  0  0
   28.8585   12.2912    5.5483 C   0  0  2  0  0  0  0  0  0  0  0  0
   28.8070   12.0445    4.1645 O   0  0  0  0  0  0  0  0  0  0  0  0
   29.5804   13.5546    6.0189 C   0  0  0  0  0  0  0  0  0  0  0  0
   29.4246   13.5997    7.4247 O   0  0  0  0  0  0  0  0  0  0  0  0
   27.3337   10.0125    6.9268 C   0  0  2  0  0  0  0  0  0  0  0  0
   28.3695    9.8428    6.0540 O   0  0  0  0  0  0  0  0  0  0  0  0
   27.7366    9.7248    8.3432 C   0  0  1  0  0  0  0  0  0  0  0  0
   24.0384    6.8655    7.0159 N   0  0  0  0  0  0  0  0  0  0  0  0
   23.8078   11.5400   -0.1866 O   0  0  0  0  0  0  0  0  0  0  0  0
   26.4832    9.8901    9.2875 C   0  0  2  0  0  0  0  0  0  0  0  0
   25.2682    8.9840    8.8854 C   0  0  1  0  0  0  0  0  0  0  0  0
   24.8932    9.2856    7.5238 C   0  0  1  0  0  0  0  0  0  0  0  0
   26.0825    9.1343    6.5944 O   0  0  0  0  0  0  0  0  0  0  0  0
   23.6886    8.3558    7.0574 C   0  0  0  0  0  0  0  0  0  0  0  0
   28.1954    8.3968    8.4544 N   0  0  0  0  0  0  0  0  0  0  0  0
   35.3293    9.3047    2.4772 O   0  0  0  0  0  0  0  0  0  0  0  0
   24.2270   10.2618   -2.0169 C   0  0  0  0  0  0  0  0  0  0  0  0
   25.6003    7.8869    8.9451 O   0  0  0  0  0  0  0  0  0  0  0  0
   26.1216   10.9798    9.2153 O   0  0  0  0  0  0  0  0  0  0  0  0
   25.9604   10.3027   -0.4063 C   0  0  0  0  0  0  0  0  0  0  0  0
   24.6286   11.4643   -2.5542 C   0  0  0  0  0  0  0  0  0  0  0  0
   24.3705   10.3321   -0.6942 C   0  0  1  0  0  0  0  0  0  0  0  0
   36.5925   10.0798    0.2626 F   0  0  0  0  0  0  0  0  0  0  0  0
  1  2  1  1  0  0  0
  1 10  1  0  0  0  0
  1  3  1  0  0  0  0
  3  4  1  1  0  0  0
  3  6  1  0  0  0  0
  5 46  2  0  0  0  0
  6 42  1  1  0  0  0
  6  8  1  0  0  0  0
  7 47  1  0  0  0  0
  8  9  1  0  0  0  0
  8 49  1  6  0  0  0
  9 10  1  0  0  0  0
  9 11  1  6  0  0  0
 11 12  1  0  0  0  0
 13 14  1  1  0  0  0
 13 15  1  0  0  0  0
 13 21  1  0  0  0  0
 14 46  1  0  0  0  0
 15 16  1  0  0  0  0
 16 17  1  6  0  0  0
 16 18  1  0  0  0  0
 18  2  1  6  0  0  0
 18 19  1  0  0  0  0
 19 20  1  1  0  0  0
 19 21  1  0  0  0  0
 21 22  1  1  0  0  0
 23 20  1  6  0  0  0
 23 24  1  0  0  0  0
 23 28  1  0  0  0  0
 24 25  1  6  0  0  0
 24 26  1  0  0  0  0
 26 27  1  0  0  0  0
 26 32  1  6  0  0  0
 27 28  1  0  0  0  0
 27 29  1  6  0  0  0
 29 30  1  0  0  0  0
 31 32  1  6  0  0  0
 31 33  1  0  0  0  0
 31 39  1  0  0  0  0
 33 36  1  0  0  0  0
 33 41  1  6  0  0  0
 34 40  1  0  0  0  0
 35 48  1  0  0  0  0
 36 37  1  0  0  0  0
 36 45  1  6  0  0  0
 37 38  1  0  0  0  0
 37 44  1  6  0  0  0
 38 39  1  0  0  0  0
 38 40  1  6  0  0  0
 43 47  1  0  0  0  0
 46 48  1  0  0  0  0
 48 43  1  6  0  0  0
M  END
>  <CHROM.1>
-114.38091410,-60.84246727,-59.33671606,54.41051155,-123.10903849,172.80397790
179.38712039,-65.42745852,-76.30540828,-63.77510258,-161.97128988,47.88137322
141.41950118,29.26294115,10.52374826,2.78889550,-0.78504292,0.04248654,1.70261959

>  <Name>
ligand

>  <RI>
0

>  <Rbt.Current_Directory>
/home/itssahil/PROJECTS/Mol_Feturizer/New_Systems/rnas/4PDQ

>  <Rbt.Executable>
rbdock ($Id: //depot/dev/client3/rdock/2013.1/src/exe/rbdock.cxx#4 $)

>  <Rbt.Library>
libRbt.so (2013.1, Build901 2013/11/27)

>  <Rbt.Parameter_File>
/export/apps/rDock/src/rDock_2013.1_src/data/scripts/dock_solv.prm

>  <Rbt.Receptor>
prm/pocket_docking_2.prm

>  <SCORE>
10.8043

>  <SCORE.INTER>
2.26308

>  <SCORE.INTER.CONST>
1

>  <SCORE.INTER.POLAR>
0

>  <SCORE.INTER.ROT>
13

>  <SCORE.INTER.SOLV>
22.5362

>  <SCORE.INTER.VDW>
-18.27

>  <SCORE.INTER.norm>
0.0461854

>  <SCORE.INTRA>
3.23045

>  <SCORE.INTRA.DIHEDRAL>
-15.6353

>  <SCORE.INTRA.DIHEDRAL.0>
34.5115

>  <SCORE.INTRA.POLAR>
0

>  <SCORE.INTRA.POLAR.0>
0

>  <SCORE.INTRA.REPUL>
0

>  <SCORE.INTRA.REPUL.0>
0

>  <SCORE.INTRA.SOLV>
0.872447

>  <SCORE.INTRA.SOLV.lig_0>
-122.812

>  <SCORE.INTRA.VDW>
10.6119

>  <SCORE.INTRA.VDW.0>
-7.46208

>  <SCORE.INTRA.norm>
0.0659275

>  <SCORE.RESTR>
5.31079

>  <SCORE.RESTR.CAVITY>
5.31079

>  <SCORE.RESTR.norm>
0.108384

>  <SCORE.SYSTEM>
0

>  <SCORE.SYSTEM.CONST>
0

>  <SCORE.SYSTEM.DIHEDRAL>
0

>  <SCORE.SYSTEM.SOLV>
0

>  <SCORE.SYSTEM.norm>
0

>  <SCORE.heavy>
49

>  <SCORE.norm>
0.220496

>  <RMSD>
7.056

$$$$
ligand
 OpenBabel11021811513D
libRbt.so/2013.1/901 2013/11/27
 49 52  0  0  0  0  0  0  0  0999 V2000
   24.5899   10.5467    0.7265 C   0  0  2  0  0  0  0  0  0  0  0  0
   25.7152    9.8234    1.1298 O   0  0  0  0  0  0  0  0  0  0  0  0
   23.7346    9.6838   -0.2740 C   0  0  2  0  0  0  0  0  0  0  0  0
   23.3167    8.3929    0.4126 N   0  0  0  0  0  0  0  0  0  0  0  0
   22.7989    7.0264    6.6990 O   0  0  0  0  0  0  0  0  0  0  0  0
   24.5380    9.4018   -1.5651 C   0  0  2  0  0  0  0  0  0  0  0  0
   26.1461    4.9006   10.7303 N   0  0  0  0  0  0  0  0  0  0  0  0
   24.9657   10.7199   -2.2295 C   0  0  2  0  0  0  0  0  0  0  0  0
   25.8303   11.6196   -1.2483 C   0  0  2  0  0  0  0  0  0  0  0  0
   25.0193   11.8267    0.0322 O   0  0  0  0  0  0  0  0  0  0  0  0
   26.2126   12.9760   -1.9083 C   0  0  0  0  0  0  0  0  0  0  0  0
   26.7619   12.8455   -3.2103 N   0  0  0  0  0  0  0  0  0  0  0  0
   24.6983    7.3059    4.5107 C   0  0  2  0  0  0  0  0  0  0  0  0
   24.8621    6.3153    5.6148 N   0  0  0  0  0  0  0  0  0  0  0  0
   25.3988    6.6788    3.2097 C   0  0  0  0  0  0  0  0  0  0  0  0
   25.2505    7.6540    1.9828 C   0  0  2  0  0  0  0  0  0  0  0  0
   25.9061    7.0995    0.7893 N   0  0  0  0  0  0  0  0  0  0  0  0
   25.8996    9.0156    2.3016 C   0  0  2  0  0  0  0  0  0  0  0  0
   25.2337    9.6602    3.5838 C   0  0  2  0  0  0  0  0  0  0  0  0
   25.9142   10.9526    3.7983 O   0  0  0  0  0  0  0  0  0  0  0  0
   25.4565    8.6725    4.8392 C   0  0  1  0  0  0  0  0  0  0  0  0
   24.8711    9.2604    5.9578 O   0  0  0  0  0  0  0  0  0  0  0  0
   27.0398   11.1473    4.3966 C   0  0  1  0  0  0  0  0  0  0  0  0
   27.7293   12.5137    4.1101 C   0  0  2  0  0  0  0  0  0  0  0  0
   28.5787   12.3495    3.0185 O   0  0  0  0  0  0  0  0  0  0  0  0
   28.4816   12.6477    5.3687 C   0  0  1  0  0  0  0  0  0  0  0  0
   27.5802   12.1289    6.5313 C   0  0  2  0  0  0  0  0  0  0  0  0
   26.9866   11.0467    5.8570 O   0  0  0  0  0  0  0  0  0  0  0  0
   26.6539   13.1266    7.2283 C   0  0  0  0  0  0  0  0  0  0  0  0
   26.0389   12.4213    8.2899 O   0  0  0  0  0  0  0  0  0  0  0  0
   29.7659   10.5910    5.7486 C   0  0  2  0  0  0  0  0  0  0  0  0
   29.7339   11.8414    5.2018 O   0  0  0  0  0  0  0  0  0  0  0  0
   29.8926   10.6319    7.2431 C   0  0  1  0  0  0  0  0  0  0  0  0
   32.1066    7.3830    3.5619 N   0  0  0  0  0  0  0  0  0  0  0  0
   24.4207    3.9293    7.1493 O   0  0  0  0  0  0  0  0  0  0  0  0
   29.9750    9.1583    7.8016 C   0  0  2  0  0  0  0  0  0  0  0  0
   31.1498    8.3184    7.1908 C   0  0  1  0  0  0  0  0  0  0  0  0
   31.0008    8.2854    5.7547 C   0  0  1  0  0  0  0  0  0  0  0  0
   30.9187    9.6918    5.1922 O   0  0  0  0  0  0  0  0  0  0  0  0
   32.1991    7.4780    5.0875 C   0  0  0  0  0  0  0  0  0  0  0  0
   31.0757   11.3048    7.6090 N   0  0  0  0  0  0  0  0  0  0  0  0
   23.8824    8.8100   -2.2905 O   0  0  0  0  0  0  0  0  0  0  0  0
   25.1496    5.6106    8.4917 C   0  0  0  0  0  0  0  0  0  0  0  0
   32.1393    8.8392    7.4499 O   0  0  0  0  0  0  0  0  0  0  0  0
   29.0000    8.6149    7.5235 O   0  0  0  0  0  0  0  0  0  0  0  0
   23.7995    6.2957    6.6728 C   0  0  0  0  0  0  0  0  0  0  0  0
   25.2496    4.8454    9.6320 C   0  0  0  0  0  0  0  0  0  0  0  0
   24.1100    5.1666    7.7864 C   0  0  1  0  0  0  0  0  0  0  0  0
   23.8292   11.4550   -2.6106 F   0  0  0  0  0  0  0  0  0  0  0  0
  1  2  1  6  0  0  0
  1 10  1  0  0  0  0
  1  3  1  0  0  0  0
  3  4  1  1  0  0  0
  3  6  1  0  0  0  0
  5 46  2  0  0  0  0
  6 42  1  6  0  0  0
  6  8  1  0  0  0  0
  7 47  1  0  0  0  0
  8  9  1  0  0  0  0
  8 49  1  1  0  0  0
  9 10  1  0  0  0  0
  9 11  1  6  0  0  0
 11 12  1  0  0  0  0
 13 14  1  1  0  0  0
 13 15  1  0  0  0  0
 13 21  1  0  0  0  0
 14 46  1  0  0  0  0
 15 16  1  0  0  0  0
 16 17  1  6  0  0  0
 16 18  1  0  0  0  0
 18  2  1  6  0  0  0
 18 19  1  0  0  0  0
 19 20  1  1  0  0  0
 19 21  1  0  0  0  0
 21 22  1  1  0  0  0
 23 20  1  6  0  0  0
 23 24  1  0  0  0  0
 23 28  1  0  0  0  0
 24 25  1  6  0  0  0
 24 26  1  0  0  0  0
 26 27  1  0  0  0  0
 26 32  1  6  0  0  0
 27 28  1  0  0  0  0
 27 29  1  6  0  0  0
 29 30  1  0  0  0  0
 31 32  1  6  0  0  0
 31 33  1  0  0  0  0
 31 39  1  0  0  0  0
 33 36  1  0  0  0  0
 33 41  1  6  0  0  0
 34 40  1  0  0  0  0
 35 48  1  0  0  0  0
 36 37  1  0  0  0  0
 36 45  1  6  0  0  0
 37 38  1  0  0  0  0
 37 44  1  6  0  0  0
 38 39  1  0  0  0  0
 38 40  1  6  0  0  0
 43 47  1  0  0  0  0
 46 48  1  0  0  0  0
 48 43  1  6  0  0  0
M  END
>  <CHROM.1>
-95.30495503,81.17927319,-49.21971657,-150.69597499,-82.60675795,162.06536513
-99.42305968,-175.73197265,-73.62668913,179.34932946,-178.56534409,-74.45287139
130.49971274,26.75638588,9.37551100,4.07668272,1.97379817,-0.60621316,-1.03026177

>  <Name>
ligand

>  <RI>
0

>  <Rbt.Current_Directory>
/home/itssahil/PROJECTS/Mol_Feturizer/New_Systems/rnas/4PDQ

>  <Rbt.Executable>
rbdock ($Id: //depot/dev/client3/rdock/2013.1/src/exe/rbdock.cxx#4 $)

>  <Rbt.Library>
libRbt.so (2013.1, Build901 2013/11/27)

>  <Rbt.Parameter_File>
/export/apps/rDock/src/rDock_2013.1_src/data/scripts/dock_solv.prm

>  <Rbt.Receptor>
prm/pocket_docking_5.prm

>  <SCORE>
-10.3657

>  <SCORE.INTER>
-9.23477

>  <SCORE.INTER.CONST>
1

>  <SCORE.INTER.POLAR>
0

>  <SCORE.INTER.ROT>
13

>  <SCORE.INTER.SOLV>
24.0793

>  <SCORE.INTER.VDW>
-26.4496

>  <SCORE.INTER.norm>
-0.188465

>  <SCORE.INTRA>
-1.13095

>  <SCORE.INTRA.DIHEDRAL>
-15.2752

>  <SCORE.INTRA.DIHEDRAL.0>
34.5115

>  <SCORE.INTRA.POLAR>
0

>  <SCORE.INTRA.POLAR.0>
0

>  <SCORE.INTRA.REPUL>
0

>  <SCORE.INTRA.REPUL.0>
0

>  <SCORE.INTRA.SOLV>
2.36788

>  <SCORE.INTRA.SOLV.lig_0>
-122.812

>  <SCORE.INTRA.VDW>
5.32272

>  <SCORE.INTRA.VDW.0>
-7.46208

>  <SCORE.INTRA.norm>
-0.0230806

>  <SCORE.RESTR>
0

>  <SCORE.RESTR.CAVITY>
0

>  <SCORE.RESTR.norm>
0

>  <SCORE.SYSTEM>
0

>  <SCORE.SYSTEM.CONST>
0

>  <SCORE.SYSTEM.DIHEDRAL>
0

>  <SCORE.SYSTEM.SOLV>
0

>  <SCORE.SYSTEM.norm>
0

>  <SCORE.heavy>
49

>  <SCORE.norm>
-0.211545

>  <RMSD>
7.056

$$$$
ligand
 OpenBabel11021811513D
libRbt.so/2013.1/901 2013/11/27
 49 52  0  0  0  0  0  0  0  0999 V2000
   26.5828    8.3458    1.7680 C   0  0  2  0  0  0  0  0  0  0  0  0
   25.8776    8.0983    2.9484 O   0  0  0  0  0  0  0  0  0  0  0  0
   27.3304    9.7266    1.8758 C   0  0  2  0  0  0  0  0  0  0  0  0
   28.2805    9.6877    3.0625 N   0  0  0  0  0  0  0  0  0  0  0  0
   28.5960    6.3306    7.7136 O   0  0  0  0  0  0  0  0  0  0  0  0
   26.3111   10.8823    2.0067 C   0  0  2  0  0  0  0  0  0  0  0  0
   29.7936    3.6414   11.9918 N   0  0  0  0  0  0  0  0  0  0  0  0
   25.3504   10.8888    0.8073 C   0  0  2  0  0  0  0  0  0  0  0  0
   24.5782    9.5094    0.6647 C   0  0  2  0  0  0  0  0  0  0  0  0
   25.6232    8.3944    0.5926 O   0  0  0  0  0  0  0  0  0  0  0  0
   23.6492    9.5035   -0.5838 C   0  0  0  0  0  0  0  0  0  0  0  0
   24.3405    9.6574   -1.8136 N   0  0  0  0  0  0  0  0  0  0  0  0
   25.9113    5.8880    6.6789 C   0  0  2  0  0  0  0  0  0  0  0  0
   26.4448    5.1997    7.8907 N   0  0  0  0  0  0  0  0  0  0  0  0
   26.7944    5.3955    5.4323 C   0  0  0  0  0  0  0  0  0  0  0  0
   26.2807    6.0583    4.1000 C   0  0  2  0  0  0  0  0  0  0  0  0
   27.0949    5.6304    2.9529 N   0  0  0  0  0  0  0  0  0  0  0  0
   26.3606    7.5945    4.2025 C   0  0  2  0  0  0  0  0  0  0  0  0
   25.5027    8.1135    5.4262 C   0  0  2  0  0  0  0  0  0  0  0  0
   25.6378    9.5835    5.4327 O   0  0  0  0  0  0  0  0  0  0  0  0
   26.0901    7.4715    6.7842 C   0  0  1  0  0  0  0  0  0  0  0  0
   25.3277    7.9459    7.8488 O   0  0  0  0  0  0  0  0  0  0  0  0
   24.9274   10.4254    6.1031 C   0  0  1  0  0  0  0  0  0  0  0  0
   25.6442   11.1069    7.3058 C   0  0  2  0  0  0  0  0  0  0  0  0
   25.4162   10.3325    8.4408 O   0  0  0  0  0  0  0  0  0  0  0  0
   24.8724   12.3604    7.3391 C   0  0  1  0  0  0  0  0  0  0  0  0
   24.5994   12.8024    5.8682 C   0  0  2  0  0  0  0  0  0  0  0  0
   24.3735   11.5290    5.3151 O   0  0  0  0  0  0  0  0  0  0  0  0
   25.6267   13.7037    5.1817 C   0  0  0  0  0  0  0  0  0  0  0  0
   26.8499   12.9920    5.1951 O   0  0  0  0  0  0  0  0  0  0  0  0
   23.4987   12.5658    9.3626 C   0  0  2  0  0  0  0  0  0  0  0  0
   23.6147   12.0637    8.0985 O   0  0  0  0  0  0  0  0  0  0  0  0
   23.0860   14.0083    9.3610 C   0  0  1  0  0  0  0  0  0  0  0  0
   26.5373   11.2926   12.5172 N   0  0  0  0  0  0  0  0  0  0  0  0
   28.2458    3.3169    9.3711 O   0  0  0  0  0  0  0  0  0  0  0  0
   23.0215   14.5357   10.8469 C   0  0  2  0  0  0  0  0  0  0  0  0
   24.3678   14.3682   11.6332 C   0  0  1  0  0  0  0  0  0  0  0  0
   24.7387   12.9726   11.6293 C   0  0  1  0  0  0  0  0  0  0  0  0
   24.8074   12.4405   10.2104 O   0  0  0  0  0  0  0  0  0  0  0  0
   26.1257   12.7613   12.3807 C   0  0  0  0  0  0  0  0  0  0  0  0
   24.0359   14.7814    8.6637 N   0  0  0  0  0  0  0  0  0  0  0  0
   26.8758   11.8754    2.0422 O   0  0  0  0  0  0  0  0  0  0  0  0
   29.5108    5.1186    9.9311 C   0  0  0  0  0  0  0  0  0  0  0  0
   25.1805   14.9704   11.0906 O   0  0  0  0  0  0  0  0  0  0  0  0
   22.2299   13.9206   11.4111 O   0  0  0  0  0  0  0  0  0  0  0  0
   27.8501    5.5308    8.2963 C   0  0  0  0  0  0  0  0  0  0  0  0
   29.7268    4.8586   11.2660 C   0  0  0  0  0  0  0  0  0  0  0  0
   28.2765    4.7194    9.6272 C   0  0  1  0  0  0  0  0  0  0  0  0
   26.0688   11.1134   -0.3805 F   0  0  0  0  0  0  0  0  0  0  0  0
  1  2  1  1  0  0  0
  1 10  1  0  0  0  0
  1  3  1  0  0  0  0
  3  4  1  1  0  0  0
  3  6  1  0  0  0  0
  5 46  2  0  0  0  0
  6 42  1  6  0  0  0
  6  8  1  0  0  0  0
  7 47  1  0  0  0  0
  8  9  1  0  0  0  0
  8 49  1  6  0  0  0
  9 10  1  0  0  0  0
  9 11  1  6  0  0  0
 11 12  1  0  0  0  0
 13 14  1  1  0  0  0
 13 15  1  0  0  0  0
 13 21  1  0  0  0  0
 14 46  1  0  0  0  0
 15 16  1  0  0  0  0
 16 17  1  6  0  0  0
 16 18  1  0  0  0  0
 18  2  1  6  0  0  0
 18 19  1  0  0  0  0
 19 20  1  1  0  0  0
 19 21  1  0  0  0  0
 21 22  1  1  0  0  0
 23 20  1  6  0  0  0
 23 24  1  0  0  0  0
 23 28  1  0  0  0  0
 24 25  1  1  0  0  0
 24 26  1  0  0  0  0
 26 27  1  0  0  0  0
 26 32  1  1  0  0  0
 27 28  1  0  0  0  0
 27 29  1  6  0  0  0
 29 30  1  0  0  0  0
 31 32  1  6  0  0  0
 31 33  1  0  0  0  0
 31 39  1  0  0  0  0
 33 36  1  0  0  0  0
 33 41  1  6  0  0  0
 34 40  1  0  0  0  0
 35 48  1  0  0  0  0
 36 37  1  0  0  0  0
 36 45  1  1  0  0  0
 37 38  1  0  0  0  0
 37 44  1  6  0  0  0
 38 39  1  0  0  0  0
 38 40  1  6  0  0  0
 43 47  1  0  0  0  0
 46 48  1  0  0  0  0
 48 43  1  6  0  0  0
M  END
>  <CHROM.1>
-80.19050581,-87.97439245,61.89083520,64.26037227,166.80324102,107.82478999
106.89649546,59.05544738,80.44918003,175.45672947,64.73588906,-82.33717088
-118.61379851,25.87488922,9.74436428,6.41619323,1.36026301,1.15261474,-1.70352644

>  <Name>
ligand

>  <RI>
0

>  <Rbt.Current_Directory>
/home/itssahil/PROJECTS/Mol_Feturizer/New_Systems/rnas/4PDQ

>  <Rbt.Executable>
rbdock ($Id: //depot/dev/client3/rdock/2013.1/src/exe/rbdock.cxx#4 $)

>  <Rbt.Library>
libRbt.so (2013.1, Build901 2013/11/27)

>  <Rbt.Parameter_File>
/export/apps/rDock/src/rDock_2013.1_src/data/scripts/dock_solv.prm

>  <Rbt.Receptor>
prm/pocket_docking_7.prm

>  <SCORE>
-8.20509

>  <SCORE.INTER>
-7.32037

>  <SCORE.INTER.CONST>
1

>  <SCORE.INTER.POLAR>
0

>  <SCORE.INTER.ROT>
13

>  <SCORE.INTER.SOLV>
16.3867

>  <SCORE.INTER.VDW>
-22.6091

>  <SCORE.INTER.norm>
-0.149395

>  <SCORE.INTRA>
-0.884723

>  <SCORE.INTRA.DIHEDRAL>
-11.2907

>  <SCORE.INTRA.DIHEDRAL.0>
34.5115

>  <SCORE.INTRA.POLAR>
0

>  <SCORE.INTRA.POLAR.0>
0

>  <SCORE.INTRA.REPUL>
0

>  <SCORE.INTRA.REPUL.0>
0

>  <SCORE.INTRA.SOLV>
4.05688

>  <SCORE.INTRA.SOLV.lig_0>
-122.812

>  <SCORE.INTRA.VDW>
2.73221

>  <SCORE.INTRA.VDW.0>
-7.46208

>  <SCORE.INTRA.norm>
-0.0180556

>  <SCORE.RESTR>
0

>  <SCORE.RESTR.CAVITY>
0

>  <SCORE.RESTR.norm>
0

>  <SCORE.SYSTEM>
0

>  <SCORE.SYSTEM.CONST>
0

>  <SCORE.SYSTEM.DIHEDRAL>
0

>  <SCORE.SYSTEM.SOLV>
0

>  <SCORE.SYSTEM.norm>
0

>  <SCORE.heavy>
49

>  <SCORE.norm>
-0.167451

>  <RMSD>
7.057

$$$$
ligand
 OpenBabel11021811513D
libRbt.so/2013.1/901 2013/11/27
 49 52  0  0  0  0  0  0  0  0999 V2000
   29.3293    8.3297    1.4463 C   0  0  2  0  0  0  0  0  0  0  0  0
   29.7406    8.7996    2.6962 O   0  0  0  0  0  0  0  0  0  0  0  0
   30.3606    7.2669    0.9131 C   0  0  2  0  0  0  0  0  0  0  0  0
   30.4525    6.1194    1.9067 N   0  0  0  0  0  0  0  0  0  0  0  0
   28.8066    7.6586    8.2461 O   0  0  0  0  0  0  0  0  0  0  0  0
   31.7409    7.9248    0.6815 C   0  0  2  0  0  0  0  0  0  0  0  0
   30.7432    4.0455   12.2105 N   0  0  0  0  0  0  0  0  0  0  0  0
   31.6191    9.0928   -0.3097 C   0  0  2  0  0  0  0  0  0  0  0  0
   30.5844   10.1861    0.1941 C   0  0  2  0  0  0  0  0  0  0  0  0
   29.2529    9.4814    0.4603 O   0  0  0  0  0  0  0  0  0  0  0  0
   30.4247   11.3378   -0.8402 C   0  0  0  0  0  0  0  0  0  0  0  0
   29.8414   10.9293   -2.0677 N   0  0  0  0  0  0  0  0  0  0  0  0
   29.0979    5.9539    5.9043 C   0  0  2  0  0  0  0  0  0  0  0  0
   28.9414    5.4214    7.2896 N   0  0  0  0  0  0  0  0  0  0  0  0
   30.3836    6.9148    5.9132 C   0  0  0  0  0  0  0  0  0  0  0  0
   30.6380    7.5044    4.4759 C   0  0  2  0  0  0  0  0  0  0  0  0
   31.8019    8.4027    4.4754 N   0  0  0  0  0  0  0  0  0  0  0  0
   29.4091    8.3061    4.0025 C   0  0  2  0  0  0  0  0  0  0  0  0
   28.1211    7.3876    3.9862 C   0  0  2  0  0  0  0  0  0  0  0  0
   27.0111    8.2395    3.5156 O   0  0  0  0  0  0  0  0  0  0  0  0
   27.8453    6.8500    5.4816 C   0  0  1  0  0  0  0  0  0  0  0  0
   26.7049    6.0512    5.4477 O   0  0  0  0  0  0  0  0  0  0  0  0
   26.6396    9.3722    4.0073 C   0  0  1  0  0  0  0  0  0  0  0  0
   25.3500    9.9870    3.3878 C   0  0  2  0  0  0  0  0  0  0  0  0
   25.7280   10.8096    2.3294 O   0  0  0  0  0  0  0  0  0  0  0  0
   24.9001   10.7700    4.5508 C   0  0  1  0  0  0  0  0  0  0  0  0
   25.1718    9.9300    5.8368 C   0  0  2  0  0  0  0  0  0  0  0  0
   26.4028    9.3683    5.4529 O   0  0  0  0  0  0  0  0  0  0  0  0
   24.0775    8.9790    6.3238 C   0  0  0  0  0  0  0  0  0  0  0  0
   23.8708    8.0455    5.2805 O   0  0  0  0  0  0  0  0  0  0  0  0
   25.2838   13.0524    5.3674 C   0  0  2  0  0  0  0  0  0  0  0  0
   25.6733   12.0536    4.5223 O   0  0  0  0  0  0  0  0  0  0  0  0
   26.0967   14.2994    5.1797 C   0  0  1  0  0  0  0  0  0  0  0  0
   24.1821   11.9226    9.6181 N   0  0  0  0  0  0  0  0  0  0  0  0
   27.5957    4.7239    9.7505 O   0  0  0  0  0  0  0  0  0  0  0  0
   25.6288   15.3904    6.2192 C   0  0  2  0  0  0  0  0  0  0  0  0
   25.7175   14.9170    7.7115 C   0  0  1  0  0  0  0  0  0  0  0  0
   24.9205   13.7231    7.8692 C   0  0  1  0  0  0  0  0  0  0  0  0
   25.3509   12.6571    6.8795 O   0  0  0  0  0  0  0  0  0  0  0  0
   25.0167   13.1809    9.3625 C   0  0  0  0  0  0  0  0  0  0  0  0
   27.4594   14.0273    5.4152 N   0  0  0  0  0  0  0  0  0  0  0  0
   32.4595    7.1440    0.2568 O   0  0  0  0  0  0  0  0  0  0  0  0
   29.8039    5.1267   10.0993 C   0  0  0  0  0  0  0  0  0  0  0  0
   26.8127   14.6667    7.9467 O   0  0  0  0  0  0  0  0  0  0  0  0
   24.5228   15.6303    6.0132 O   0  0  0  0  0  0  0  0  0  0  0  0
   28.8063    6.4281    8.3929 C   0  0  0  0  0  0  0  0  0  0  0  0
   29.7882    4.7345   11.4191 C   0  0  0  0  0  0  0  0  0  0  0  0
   28.6327    5.6998    9.8250 C   0  0  1  0  0  0  0  0  0  0  0  0
   31.1809    8.6176   -1.5584 F   0  0  0  0  0  0  0  0  0  0  0  0
  1  2  1  1  0  0  0
  1 10  1  0  0  0  0
  1  3  1  0  0  0  0
  3  4  1  1  0  0  0
  3  6  1  0  0  0  0
  5 46  2  0  0  0  0
  6 42  1  6  0  0  0
  6  8  1  0  0  0  0
  7 47  1  0  0  0  0
  8  9  1  0  0  0  0
  8 49  1  6  0  0  0
  9 10  1  0  0  0  0
  9 11  1  6  0  0  0
 11 12  1  0  0  0  0
 13 14  1  1  0  0  0
 13 15  1  0  0  0  0
 13 21  1  0  0  0  0
 14 46  1  0  0  0  0
 15 16  1  0  0  0  0
 16 17  1  1  0  0  0
 16 18  1  0  0  0  0
 18  2  1  6  0  0  0
 18 19  1  0  0  0  0
 19 20  1  1  0  0  0
 19 21  1  0  0  0  0
 21 22  1  6  0  0  0
 23 20  1  6  0  0  0
 23 24  1  0  0  0  0
 23 28  1  0  0  0  0
 24 25  1  6  0  0  0
 24 26  1  0  0  0  0
 26 27  1  0  0  0  0
 26 32  1  1  0  0  0
 27 28  1  0  0  0  0
 27 29  1  6  0  0  0
 29 30  1  0  0  0  0
 31 32  1  6  0  0  0
 31 33  1  0  0  0  0
 31 39  1  0  0  0  0
 33 36  1  0  0  0  0
 33 41  1  1  0  0  0
 34 40  1  0  0  0  0
 35 48  1  0  0  0  0
 36 37  1  0  0  0  0
 36 45  1  6  0  0  0
 37 38  1  0  0  0  0
 37 44  1  6  0  0  0
 38 39  1  0  0  0  0
 38 40  1  1  0  0  0
 43 47  1  0  0  0  0
 46 48  1  0  0  0  0
 48 43  1  6  0  0  0
M  END
>  <CHROM.1>
-91.16248789,102.49709250,65.53670781,56.85273001,-54.21947579,-174.57397079
169.26529572,60.97842195,-176.92594347,179.24157119,177.59194673,-72.76179573
128.28206507,27.94844609,9.33910023,4.92871734,0.46915301,0.93907447,-0.99263160

>  <Name>
ligand

>  <RI>
0

>  <Rbt.Current_Directory>
/home/itssahil/PROJECTS/Mol_Feturizer/New_Systems/rnas/4PDQ

>  <Rbt.Executable>
rbdock ($Id: //depot/dev/client3/rdock/2013.1/src/exe/rbdock.cxx#4 $)

>  <Rbt.Library>
libRbt.so (2013.1, Build901 2013/11/27)

>  <Rbt.Parameter_File>
/export/apps/rDock/src/rDock_2013.1_src/data/scripts/dock_solv.prm

>  <Rbt.Receptor>
prm/pocket_docking_7.prm

>  <SCORE>
-6.79652

>  <SCORE.INTER>
0.971695

>  <SCORE.INTER.CONST>
1

>  <SCORE.INTER.POLAR>
0

>  <SCORE.INTER.ROT>
13

>  <SCORE.INTER.SOLV>
22.2396

>  <SCORE.INTER.VDW>
-19.0321

>  <SCORE.INTER.norm>
0.0198305

>  <SCORE.INTRA>
-7.76822

>  <SCORE.INTRA.DIHEDRAL>
-22.3126

>  <SCORE.INTRA.DIHEDRAL.0>
34.5115

>  <SCORE.INTRA.POLAR>
0

>  <SCORE.INTRA.POLAR.0>
0

>  <SCORE.INTRA.REPUL>
0

>  <SCORE.INTRA.REPUL.0>
0

>  <SCORE.INTRA.SOLV>
2.30527

>  <SCORE.INTRA.SOLV.lig_0>
-122.812

>  <SCORE.INTRA.VDW>
2.23544

>  <SCORE.INTRA.VDW.0>
-7.46208

>  <SCORE.INTRA.norm>
-0.158535

>  <SCORE.RESTR>
0

>  <SCORE.RESTR.CAVITY>
0

>  <SCORE.RESTR.norm>
0

>  <SCORE.SYSTEM>
0

>  <SCORE.SYSTEM.CONST>
0

>  <SCORE.SYSTEM.DIHEDRAL>
0

>  <SCORE.SYSTEM.SOLV>
0

>  <SCORE.SYSTEM.norm>
0

>  <SCORE.heavy>
49

>  <SCORE.norm>
-0.138705

>  <RMSD>
7.060

$$$$
ligand
 OpenBabel11021811513D
libRbt.so/2013.1/901 2013/11/27
 49 52  0  0  0  0  0  0  0  0999 V2000
   32.8194    8.9314    2.1597 C   0  0  2  0  0  0  0  0  0  0  0  0
   31.8100    9.8950    2.0912 O   0  0  0  0  0  0  0  0  0  0  0  0
   34.0062    9.4678    3.0434 C   0  0  2  0  0  0  0  0  0  0  0  0
   33.4853    9.7894    4.4354 N   0  0  0  0  0  0  0  0  0  0  0  0
   26.2765    8.4691    1.4078 O   0  0  0  0  0  0  0  0  0  0  0  0
   34.6526   10.7076    2.3824 C   0  0  2  0  0  0  0  0  0  0  0  0
   23.6171   11.3267   -2.6675 N   0  0  0  0  0  0  0  0  0  0  0  0
   35.1529   10.3633    0.9707 C   0  0  2  0  0  0  0  0  0  0  0  0
   33.9821    9.8162    0.0490 C   0  0  2  0  0  0  0  0  0  0  0  0
   33.3397    8.6274    0.7662 O   0  0  0  0  0  0  0  0  0  0  0  0
   34.5067    9.4175   -1.3608 C   0  0  0  0  0  0  0  0  0  0  0  0
   35.3638    8.2864   -1.3549 N   0  0  0  0  0  0  0  0  0  0  0  0
   28.0369   10.3070   -0.0057 C   0  0  2  0  0  0  0  0  0  0  0  0
   26.6428   10.0075   -0.4462 N   0  0  0  0  0  0  0  0  0  0  0  0
   28.8540    8.9266   -0.0628 C   0  0  0  0  0  0  0  0  0  0  0  0
   30.3512    9.1571    0.3655 C   0  0  2  0  0  0  0  0  0  0  0  0
   31.1057    7.8955    0.3367 N   0  0  0  0  0  0  0  0  0  0  0  0
   30.4155    9.7254    1.7973 C   0  0  2  0  0  0  0  0  0  0  0  0
   29.6146   11.0867    1.8894 C   0  0  2  0  0  0  0  0  0  0  0  0
   29.7426   11.5486    3.2858 O   0  0  0  0  0  0  0  0  0  0  0  0
   28.0716   10.8105    1.5095 C   0  0  1  0  0  0  0  0  0  0  0  0
   27.3830   12.0174    1.6041 O   0  0  0  0  0  0  0  0  0  0  0  0
   28.9784   11.2417    4.2781 C   0  0  1  0  0  0  0  0  0  0  0  0
   29.6065   11.4135    5.6925 C   0  0  2  0  0  0  0  0  0  0  0  0
   30.2022   10.2067    6.0511 O   0  0  0  0  0  0  0  0  0  0  0  0
   28.3696   11.6562    6.4535 C   0  0  1  0  0  0  0  0  0  0  0  0
   27.4322   12.5509    5.5849 C   0  0  2  0  0  0  0  0  0  0  0  0
   27.7130   11.9776    4.3316 O   0  0  0  0  0  0  0  0  0  0  0  0
   27.5570   14.0695    5.7161 C   0  0  0  0  0  0  0  0  0  0  0  0
   26.5249   14.6220    4.9210 O   0  0  0  0  0  0  0  0  0  0  0  0
   26.5549   10.2652    7.3454 C   0  0  2  0  0  0  0  0  0  0  0  0
   27.7798   10.3094    6.7444 O   0  0  0  0  0  0  0  0  0  0  0  0
   26.6561   10.3554    8.8396 C   0  0  1  0  0  0  0  0  0  0  0  0
   23.4514    7.4198    5.6514 N   0  0  0  0  0  0  0  0  0  0  0  0
   23.5535    8.1700    0.7557 O   0  0  0  0  0  0  0  0  0  0  0  0
   25.2131   10.2469    9.4692 C   0  0  2  0  0  0  0  0  0  0  0  0
   24.4471    8.9395    9.0657 C   0  0  1  0  0  0  0  0  0  0  0  0
   24.3540    8.8801    7.6258 C   0  0  1  0  0  0  0  0  0  0  0  0
   25.7299    8.9830    6.9953 O   0  0  0  0  0  0  0  0  0  0  0  0
   23.6203    7.5439    7.1683 C   0  0  0  0  0  0  0  0  0  0  0  0
   27.4310    9.2881    9.3363 N   0  0  0  0  0  0  0  0  0  0  0  0
   35.5354   11.0528    3.0208 O   0  0  0  0  0  0  0  0  0  0  0  0
   23.9044   10.0420   -0.4823 C   0  0  0  0  0  0  0  0  0  0  0  0
   25.0519    8.0372    9.4366 O   0  0  0  0  0  0  0  0  0  0  0  0
   24.5863   11.1305    9.0825 O   0  0  0  0  0  0  0  0  0  0  0  0
   25.8619    9.0346    0.3860 C   0  0  0  0  0  0  0  0  0  0  0  0
   23.9195   10.2080   -1.8492 C   0  0  0  0  0  0  0  0  0  0  0  0
   24.3741    8.8254   -0.2090 C   0  0  1  0  0  0  0  0  0  0  0  0
   36.1508    9.3753    1.0439 F   0  0  0  0  0  0  0  0  0  0  0  0
  1  2  1  6  0  0  0
  1 10  1  0  0  0  0
  1  3  1  0  0  0  0
  3  4  1  1  0  0  0
  3  6  1  0  0  0  0
  5 46  2  0  0  0  0
  6 42  1  1  0  0  0
  6  8  1  0  0  0  0
  7 47  1  0  0  0  0
  8  9  1  0  0  0  0
  8 49  1  1  0  0  0
  9 10  1  0  0  0  0
  9 11  1  6  0  0  0
 11 12  1  0  0  0  0
 13 14  1  1  0  0  0
 13 15  1  0  0  0  0
 13 21  1  0  0  0  0
 14 46  1  0  0  0  0
 15 16  1  0  0  0  0
 16 17  1  1  0  0  0
 16 18  1  0  0  0  0
 18  2  1  6  0  0  0
 18 19  1  0  0  0  0
 19 20  1  1  0  0  0
 19 21  1  0  0  0  0
 21 22  1  6  0  0  0
 23 20  1  6  0  0  0
 23 24  1  0  0  0  0
 23 28  1  0  0  0  0
 24 25  1  1  0  0  0
 24 26  1  0  0  0  0
 26 27  1  0  0  0  0
 26 32  1  6  0  0  0
 27 28  1  0  0  0  0
 27 29  1  6  0  0  0
 29 30  1  0  0  0  0
 31 32  1  6  0  0  0
 31 33  1  0  0  0  0
 31 39  1  0  0  0  0
 33 36  1  0  0  0  0
 33 41  1  1  0  0  0
 34 40  1  0  0  0  0
 35 48  1  0  0  0  0
 36 37  1  0  0  0  0
 36 45  1  6  0  0  0
 37 38  1  0  0  0  0
 37 44  1  6  0  0  0
 38 39  1  0  0  0  0
 38 40  1  1  0  0  0
 43 47  1  0  0  0  0
 46 48  1  0  0  0  0
 48 43  1  1  0  0  0
M  END
>  <CHROM.1>
-157.53787059,-61.90661214,67.85648799,61.60206590,-87.85136127,158.10028523
-174.36793789,-174.90263336,-85.58020085,178.63430827,-175.19295887,-134.51756974
13.22781018,28.67909026,10.05468505,3.37455747,-0.62403837,0.03039019,1.49758323

>  <Name>
ligand

>  <RI>
0

>  <Rbt.Current_Directory>
/home/itssahil/PROJECTS/Mol_Feturizer/New_Systems/rnas/4PDQ

>  <Rbt.Executable>
rbdock ($Id: //depot/dev/client3/rdock/2013.1/src/exe/rbdock.cxx#4 $)

>  <Rbt.Library>
libRbt.so (2013.1, Build901 2013/11/27)

>  <Rbt.Parameter_File>
/export/apps/rDock/src/rDock_2013.1_src/data/scripts/dock_solv.prm

>  <Rbt.Receptor>
prm/pocket_docking_3.prm

>  <SCORE>
-4.784

>  <SCORE.INTER>
-0.854083

>  <SCORE.INTER.CONST>
1

>  <SCORE.INTER.POLAR>
0

>  <SCORE.INTER.ROT>
13

>  <SCORE.INTER.SOLV>
20.4443

>  <SCORE.INTER.VDW>
-19.6508

>  <SCORE.INTER.norm>
-0.0174303

>  <SCORE.INTRA>
-3.96223

>  <SCORE.INTRA.DIHEDRAL>
-18.1473

>  <SCORE.INTRA.DIHEDRAL.0>
34.5115

>  <SCORE.INTRA.POLAR>
0

>  <SCORE.INTRA.POLAR.0>
0

>  <SCORE.INTRA.REPUL>
0

>  <SCORE.INTRA.REPUL.0>
0

>  <SCORE.INTRA.SOLV>
0.39091

>  <SCORE.INTRA.SOLV.lig_0>
-122.812

>  <SCORE.INTRA.VDW>
4.91597

>  <SCORE.INTRA.VDW.0>
-7.46208

>  <SCORE.INTRA.norm>
-0.0808618

>  <SCORE.RESTR>
0.0323047

>  <SCORE.RESTR.CAVITY>
0.0323047

>  <SCORE.RESTR.norm>
0.000659279

>  <SCORE.SYSTEM>
0

>  <SCORE.SYSTEM.CONST>
0

>  <SCORE.SYSTEM.DIHEDRAL>
0

>  <SCORE.SYSTEM.SOLV>
0

>  <SCORE.SYSTEM.norm>
0

>  <SCORE.heavy>
49

>  <SCORE.norm>
-0.0976327

>  <RMSD>
7.097

$$$$
ligand
 OpenBabel11021811513D
libRbt.so/2013.1/901 2013/11/27
 49 52  0  0  0  0  0  0  0  0999 V2000
   30.3617    9.2277    2.0044 C   0  0  2  0  0  0  0  0  0  0  0  0
   29.9198   10.2626    1.1763 O   0  0  0  0  0  0  0  0  0  0  0  0
   31.6286    9.6978    2.8114 C   0  0  2  0  0  0  0  0  0  0  0  0
   31.2667   10.9210    3.6392 N   0  0  0  0  0  0  0  0  0  0  0  0
   25.1261   10.0022   -2.0066 O   0  0  0  0  0  0  0  0  0  0  0  0
   32.8013    9.9952    1.8480 C   0  0  2  0  0  0  0  0  0  0  0  0
   22.9960    8.6239   -2.3125 N   0  0  0  0  0  0  0  0  0  0  0  0
   33.1352    8.7515    1.0093 C   0  0  2  0  0  0  0  0  0  0  0  0
   31.8789    8.2460    0.1811 C   0  0  2  0  0  0  0  0  0  0  0  0
   30.7313    8.0169    1.1665 O   0  0  0  0  0  0  0  0  0  0  0  0
   32.2089    6.9546   -0.6220 C   0  0  0  0  0  0  0  0  0  0  0  0
   32.5125    5.8338    0.1938 N   0  0  0  0  0  0  0  0  0  0  0  0
   26.4055   12.1534   -0.5200 C   0  0  2  0  0  0  0  0  0  0  0  0
   25.2141   12.3593   -1.3948 N   0  0  0  0  0  0  0  0  0  0  0  0
   27.6051   11.6645   -1.4679 C   0  0  0  0  0  0  0  0  0  0  0  0
   28.9163   11.4456   -0.6247 C   0  0  2  0  0  0  0  0  0  0  0  0
   30.0178   10.9779   -1.4791 N   0  0  0  0  0  0  0  0  0  0  0  0
   28.6753   10.3903    0.4730 C   0  0  2  0  0  0  0  0  0  0  0  0
   27.4938   10.8402    1.4242 C   0  0  2  0  0  0  0  0  0  0  0  0
   27.3488    9.7753    2.4363 O   0  0  0  0  0  0  0  0  0  0  0  0
   26.1486   10.9938    0.5477 C   0  0  1  0  0  0  0  0  0  0  0  0
   25.1203   11.3821    1.4030 O   0  0  0  0  0  0  0  0  0  0  0  0
   26.9924    9.9178    3.6674 C   0  0  1  0  0  0  0  0  0  0  0  0
   25.6425   10.6589    3.8982 C   0  0  2  0  0  0  0  0  0  0  0  0
   25.9135   12.0178    4.0395 O   0  0  0  0  0  0  0  0  0  0  0  0
   25.2710   10.0425    5.1827 C   0  0  1  0  0  0  0  0  0  0  0  0
   25.6664    8.5344    5.1305 C   0  0  2  0  0  0  0  0  0  0  0  0
   26.8747    8.6685    4.4230 O   0  0  0  0  0  0  0  0  0  0  0  0
   24.6380    7.5354    4.5980 C   0  0  0  0  0  0  0  0  0  0  0  0
   25.1873    6.2490    4.8128 O   0  0  0  0  0  0  0  0  0  0  0  0
   26.7716   10.0855    7.1243 C   0  0  2  0  0  0  0  0  0  0  0  0
   26.0092   10.7991    6.2452 O   0  0  0  0  0  0  0  0  0  0  0  0
   26.0779    9.8852    8.4395 C   0  0  1  0  0  0  0  0  0  0  0  0
   30.3355   12.2541    8.5978 N   0  0  0  0  0  0  0  0  0  0  0  0
   23.5666   12.8117   -3.5938 O   0  0  0  0  0  0  0  0  0  0  0  0
   27.0328    9.1006    9.4206 C   0  0  2  0  0  0  0  0  0  0  0  0
   28.4154    9.8040    9.6499 C   0  0  1  0  0  0  0  0  0  0  0  0
   29.0673    9.9766    8.3729 C   0  0  1  0  0  0  0  0  0  0  0  0
   28.1686   10.7290    7.4099 O   0  0  0  0  0  0  0  0  0  0  0  0
   30.4585   10.7283    8.5532 C   0  0  0  0  0  0  0  0  0  0  0  0
   25.7810   11.1331    9.0235 N   0  0  0  0  0  0  0  0  0  0  0  0
   33.7194   10.2945    2.4594 O   0  0  0  0  0  0  0  0  0  0  0  0
   23.2746   10.5831   -3.9225 C   0  0  0  0  0  0  0  0  0  0  0  0
   28.2231   10.8371   10.1117 O   0  0  0  0  0  0  0  0  0  0  0  0
   27.2575    8.0726    8.9557 O   0  0  0  0  0  0  0  0  0  0  0  0
   24.6717   11.1514   -2.0988 C   0  0  0  0  0  0  0  0  0  0  0  0
   22.6267    9.5059   -3.3606 C   0  0  0  0  0  0  0  0  0  0  0  0
   23.3806   11.5319   -2.9931 C   0  0  1  0  0  0  0  0  0  0  0  0
   33.5553    7.7055    1.8499 F   0  0  0  0  0  0  0  0  0  0  0  0
  1  2  1  6  0  0  0
  1 10  1  0  0  0  0
  1  3  1  0  0  0  0
  3  4  1  6  0  0  0
  3  6  1  0  0  0  0
  5 46  2  0  0  0  0
  6 42  1  1  0  0  0
  6  8  1  0  0  0  0
  7 47  1  0  0  0  0
  8  9  1  0  0  0  0
  8 49  1  1  0  0  0
  9 10  1  0  0  0  0
  9 11  1  1  0  0  0
 11 12  1  0  0  0  0
 13 14  1  6  0  0  0
 13 15  1  0  0  0  0
 13 21  1  0  0  0  0
 14 46  1  0  0  0  0
 15 16  1  0  0  0  0
 16 17  1  6  0  0  0
 16 18  1  0  0  0  0
 18  2  1  1  0  0  0
 18 19  1  0  0  0  0
 19 20  1  1  0  0  0
 19 21  1  0  0  0  0
 21 22  1  1  0  0  0
 23 20  1  6  0  0  0
 23 24  1  0  0  0  0
 23 28  1  0  0  0  0
 24 25  1  1  0  0  0
 24 26  1  0  0  0  0
 26 27  1  0  0  0  0
 26 32  1  1  0  0  0
 27 28  1  0  0  0  0
 27 29  1  6  0  0  0
 29 30  1  0  0  0  0
 31 32  1  6  0  0  0
 31 33  1  0  0  0  0
 31 39  1  0  0  0  0
 33 36  1  0  0  0  0
 33 41  1  1  0  0  0
 34 40  1  0  0  0  0
 35 48  1  0  0  0  0
 36 37  1  0  0  0  0
 36 45  1  6  0  0  0
 37 38  1  0  0  0  0
 37 44  1  6  0  0  0
 38 39  1  0  0  0  0
 38 40  1  1  0  0  0
 43 47  1  0  0  0  0
 46 48  1  0  0  0  0
 48 43  1  6  0  0  0
M  END
>  <CHROM.1>
-166.34788320,-161.23301894,64.58048736,63.18331303,147.02094657,54.52109021
-126.76841628,-173.05304594,-100.58664465,-84.33846905,-65.03866110,-158.23015822
-143.22363237,27.82238089,9.96067775,2.79287036,-1.82110391,-0.19836783,1.58737709

>  <Name>
ligand

>  <RI>
0

>  <Rbt.Current_Directory>
/home/itssahil/PROJECTS/Mol_Feturizer/New_Systems/rnas/4PDQ

>  <Rbt.Executable>
rbdock ($Id: //depot/dev/client3/rdock/2013.1/src/exe/rbdock.cxx#4 $)

>  <Rbt.Library>
libRbt.so (2013.1, Build901 2013/11/27)

>  <Rbt.Parameter_File>
/export/apps/rDock/src/rDock_2013.1_src/data/scripts/dock_solv.prm

>  <Rbt.Receptor>
prm/pocket_docking_4.prm

>  <SCORE>
1.92975

>  <SCORE.INTER>
0.415305

>  <SCORE.INTER.CONST>
1

>  <SCORE.INTER.POLAR>
0

>  <SCORE.INTER.ROT>
13

>  <SCORE.INTER.SOLV>
22.8962

>  <SCORE.INTER.VDW>
-19.6219

>  <SCORE.INTER.norm>
0.0084756

>  <SCORE.INTRA>
1.51444

>  <SCORE.INTRA.DIHEDRAL>
-10.1837

>  <SCORE.INTRA.DIHEDRAL.0>
34.5115

>  <SCORE.INTRA.POLAR>
0

>  <SCORE.INTRA.POLAR.0>
0

>  <SCORE.INTRA.REPUL>
0

>  <SCORE.INTRA.REPUL.0>
0

>  <SCORE.INTRA.SOLV>
2.56409

>  <SCORE.INTRA.SOLV.lig_0>
-122.812

>  <SCORE.INTRA.VDW>
5.32423

>  <SCORE.INTRA.VDW.0>
-7.46208

>  <SCORE.INTRA.norm>
0.030907

>  <SCORE.RESTR>
0

>  <SCORE.RESTR.CAVITY>
0

>  <SCORE.RESTR.norm>
0

>  <SCORE.SYSTEM>
0

>  <SCORE.SYSTEM.CONST>
0

>  <SCORE.SYSTEM.DIHEDRAL>
0

>  <SCORE.SYSTEM.SOLV>
0

>  <SCORE.SYSTEM.norm>
0

>  <SCORE.heavy>
49

>  <SCORE.norm>
0.0393826

>  <RMSD>
7.107

$$$$
ligand
 OpenBabel11021811513D
libRbt.so/2013.1/901 2013/11/27
 49 52  0  0  0  0  0  0  0  0999 V2000
   28.1762    6.4309    1.9456 C   0  0  2  0  0  0  0  0  0  0  0  0
   27.3746    7.5723    1.8645 O   0  0  0  0  0  0  0  0  0  0  0  0
   28.5538    5.9434    0.4976 C   0  0  2  0  0  0  0  0  0  0  0  0
   29.2912    7.0584   -0.2273 N   0  0  0  0  0  0  0  0  0  0  0  0
   27.5916   13.9203    4.4274 O   0  0  0  0  0  0  0  0  0  0  0  0
   27.2846    5.5118   -0.2737 C   0  0  2  0  0  0  0  0  0  0  0  0
   25.1120   16.7081    8.0172 N   0  0  0  0  0  0  0  0  0  0  0  0
   26.5466    4.3993    0.4875 C   0  0  2  0  0  0  0  0  0  0  0  0
   26.1504    4.8543    1.9557 C   0  0  2  0  0  0  0  0  0  0  0  0
   27.4255    5.3214    2.6600 O   0  0  0  0  0  0  0  0  0  0  0  0
   25.4533    3.7045    2.7391 C   0  0  0  0  0  0  0  0  0  0  0  0
   25.0404    4.0697    4.0468 N   0  0  0  0  0  0  0  0  0  0  0  0
   26.4283   11.3191    3.8314 C   0  0  2  0  0  0  0  0  0  0  0  0
   25.8459   12.2675    4.8256 N   0  0  0  0  0  0  0  0  0  0  0  0
   25.2601   10.3004    3.4143 C   0  0  0  0  0  0  0  0  0  0  0  0
   25.7846    9.2733    2.3427 C   0  0  2  0  0  0  0  0  0  0  0  0
   24.7287    8.3214    1.9671 N   0  0  0  0  0  0  0  0  0  0  0  0
   26.9763    8.4745    2.9072 C   0  0  2  0  0  0  0  0  0  0  0  0
   28.1459    9.4510    3.3329 C   0  0  2  0  0  0  0  0  0  0  0  0
   29.2327    8.5952    3.8486 O   0  0  0  0  0  0  0  0  0  0  0  0
   27.6015   10.4489    4.4771 C   0  0  1  0  0  0  0  0  0  0  0  0
   28.6463   11.2938    4.8433 O   0  0  0  0  0  0  0  0  0  0  0  0
   29.2530    7.9572    4.9691 C   0  0  1  0  0  0  0  0  0  0  0  0
   30.5036    7.0623    5.2140 C   0  0  2  0  0  0  0  0  0  0  0  0
   30.2229    5.7854    4.7337 O   0  0  0  0  0  0  0  0  0  0  0  0
   30.5144    7.0991    6.6859 C   0  0  1  0  0  0  0  0  0  0  0  0
   30.1269    8.5406    7.1390 C   0  0  2  0  0  0  0  0  0  0  0  0
   29.1503    8.8022    6.1611 O   0  0  0  0  0  0  0  0  0  0  0  0
   31.2461    9.5673    7.3185 C   0  0  0  0  0  0  0  0  0  0  0  0
   31.8055    9.7721    6.0348 O   0  0  0  0  0  0  0  0  0  0  0  0
   29.2787    5.9704    8.4811 C   0  0  2  0  0  0  0  0  0  0  0  0
   29.5318    6.0637    7.1429 O   0  0  0  0  0  0  0  0  0  0  0  0
   28.5899    4.6859    8.8368 C   0  0  1  0  0  0  0  0  0  0  0  0
   27.0430    8.4903   12.4743 N   0  0  0  0  0  0  0  0  0  0  0  0
   25.9984   13.9463    7.4224 O   0  0  0  0  0  0  0  0  0  0  0  0
   28.2832    4.6679   10.3846 C   0  0  2  0  0  0  0  0  0  0  0  0
   27.4223    5.8854   10.8699 C   0  0  1  0  0  0  0  0  0  0  0  0
   28.1095    7.1080   10.5255 C   0  0  1  0  0  0  0  0  0  0  0  0
   28.4167    7.1499    9.0406 O   0  0  0  0  0  0  0  0  0  0  0  0
   27.2489    8.3739   10.9613 C   0  0  0  0  0  0  0  0  0  0  0  0
   27.3646    4.5881    8.1473 N   0  0  0  0  0  0  0  0  0  0  0  0
   27.5887    5.1245   -1.3051 O   0  0  0  0  0  0  0  0  0  0  0  0
   26.3481   15.7026    6.0249 C   0  0  0  0  0  0  0  0  0  0  0  0
   26.4150    5.8577   10.3203 O   0  0  0  0  0  0  0  0  0  0  0  0
   29.2841    4.7244   10.9487 O   0  0  0  0  0  0  0  0  0  0  0  0
   26.5641   13.5688    5.0244 C   0  0  0  0  0  0  0  0  0  0  0  0
   25.5106   16.5917    6.6606 C   0  0  0  0  0  0  0  0  0  0  0  0
   25.8078   14.4882    6.1172 C   0  0  1  0  0  0  0  0  0  0  0  0
   27.3673    3.2620    0.5878 F   0  0  0  0  0  0  0  0  0  0  0  0
  1  2  1  6  0  0  0
  1 10  1  0  0  0  0
  1  3  1  0  0  0  0
  3  4  1  6  0  0  0
  3  6  1  0  0  0  0
  5 46  2  0  0  0  0
  6 42  1  6  0  0  0
  6  8  1  0  0  0  0
  7 47  1  0  0  0  0
  8  9  1  0  0  0  0
  8 49  1  1  0  0  0
  9 10  1  0  0  0  0
  9 11  1  1  0  0  0
 11 12  1  0  0  0  0
 13 14  1  1  0  0  0
 13 15  1  0  0  0  0
 13 21  1  0  0  0  0
 14 46  1  0  0  0  0
 15 16  1  0  0  0  0
 16 17  1  1  0  0  0
 16 18  1  0  0  0  0
 18  2  1  6  0  0  0
 18 19  1  0  0  0  0
 19 20  1  1  0  0  0
 19 21  1  0  0  0  0
 21 22  1  6  0  0  0
 23 20  1  6  0  0  0
 23 24  1  0  0  0  0
 23 28  1  0  0  0  0
 24 25  1  1  0  0  0
 24 26  1  0  0  0  0
 26 27  1  0  0  0  0
 26 32  1  1  0  0  0
 27 28  1  0  0  0  0
 27 29  1  6  0  0  0
 29 30  1  0  0  0  0
 31 32  1  6  0  0  0
 31 33  1  0  0  0  0
 31 39  1  0  0  0  0
 33 36  1  0  0  0  0
 33 41  1  6  0  0  0
 34 40  1  0  0  0  0
 35 48  1  0  0  0  0
 36 37  1  0  0  0  0
 36 45  1  1  0  0  0
 37 38  1  0  0  0  0
 37 44  1  6  0  0  0
 38 39  1  0  0  0  0
 38 40  1  6  0  0  0
 43 47  1  0  0  0  0
 46 48  1  0  0  0  0
 48 43  1  1  0  0  0
M  END
>  <CHROM.1>
-168.93315586,-163.36344054,-178.19602605,-160.02931801,-72.63328523,176.58627002
-175.03078283,64.79329927,-164.40185032,63.90328512,63.96163695,-76.58980373
-108.59548881,27.73091802,8.25353786,5.30910179,1.28841351,1.34635341,-2.20446068

>  <Name>
ligand

>  <RI>
0

>  <Rbt.Current_Directory>
/home/itssahil/PROJECTS/Mol_Feturizer/New_Systems/rnas/4PDQ

>  <Rbt.Executable>
rbdock ($Id: //depot/dev/client3/rdock/2013.1/src/exe/rbdock.cxx#4 $)

>  <Rbt.Library>
libRbt.so (2013.1, Build901 2013/11/27)

>  <Rbt.Parameter_File>
/export/apps/rDock/src/rDock_2013.1_src/data/scripts/dock_solv.prm

>  <Rbt.Receptor>
prm/pocket_docking_7.prm

>  <SCORE>
-13.0657

>  <SCORE.INTER>
-0.534459

>  <SCORE.INTER.CONST>
1

>  <SCORE.INTER.POLAR>
0

>  <SCORE.INTER.ROT>
13

>  <SCORE.INTER.SOLV>
15.0426

>  <SCORE.INTER.VDW>
-17.6372

>  <SCORE.INTER.norm>
-0.0109073

>  <SCORE.INTRA>
-12.5312

>  <SCORE.INTRA.DIHEDRAL>
-28.1178

>  <SCORE.INTRA.DIHEDRAL.0>
34.5115

>  <SCORE.INTRA.POLAR>
0

>  <SCORE.INTRA.POLAR.0>
0

>  <SCORE.INTRA.REPUL>
0

>  <SCORE.INTRA.REPUL.0>
0

>  <SCORE.INTRA.SOLV>
-1.54848

>  <SCORE.INTRA.SOLV.lig_0>
-122.812

>  <SCORE.INTRA.VDW>
2.30195

>  <SCORE.INTRA.VDW.0>
-7.46208

>  <SCORE.INTRA.norm>
-0.255739

>  <SCORE.RESTR>
0

>  <SCORE.RESTR.CAVITY>
0

>  <SCORE.RESTR.norm>
0

>  <SCORE.SYSTEM>
0

>  <SCORE.SYSTEM.CONST>
0

>  <SCORE.SYSTEM.DIHEDRAL>
0

>  <SCORE.SYSTEM.SOLV>
0

>  <SCORE.SYSTEM.norm>
0

>  <SCORE.heavy>
49

>  <SCORE.norm>
-0.266646

>  <RMSD>
7.122

$$$$
ligand
 OpenBabel11021811513D
libRbt.so/2013.1/901 2013/11/27
 49 52  0  0  0  0  0  0  0  0999 V2000
   29.4279    7.0324    4.0149 C   0  0  2  0  0  0  0  0  0  0  0  0
   29.4974    8.2082    3.2635 O   0  0  0  0  0  0  0  0  0  0  0  0
   30.7670    6.8359    4.8183 C   0  0  2  0  0  0  0  0  0  0  0  0
   30.9826    8.0347    5.7287 N   0  0  0  0  0  0  0  0  0  0  0  0
   25.5441    9.9386   -0.5498 O   0  0  0  0  0  0  0  0  0  0  0  0
   31.9549    6.6442    3.8467 C   0  0  2  0  0  0  0  0  0  0  0  0
   22.6631    9.4971   -3.1334 N   0  0  0  0  0  0  0  0  0  0  0  0
   31.7051    5.4404    2.9248 C   0  0  2  0  0  0  0  0  0  0  0  0
   30.3598    5.6019    2.0980 C   0  0  2  0  0  0  0  0  0  0  0  0
   29.2247    5.8419    3.0951 O   0  0  0  0  0  0  0  0  0  0  0  0
   30.0851    4.3548    1.2087 C   0  0  0  0  0  0  0  0  0  0  0  0
   28.9426    4.4841    0.3768 N   0  0  0  0  0  0  0  0  0  0  0  0
   26.9797   11.3108    1.5788 C   0  0  2  0  0  0  0  0  0  0  0  0
   26.0783   12.0102    0.6169 N   0  0  0  0  0  0  0  0  0  0  0  0
   28.1852   10.6858    0.7228 C   0  0  0  0  0  0  0  0  0  0  0  0
   29.2034    9.9457    1.6682 C   0  0  2  0  0  0  0  0  0  0  0  0
   30.3024    9.3512    0.8933 N   0  0  0  0  0  0  0  0  0  0  0  0
   28.4915    8.8171    2.4405 C   0  0  2  0  0  0  0  0  0  0  0  0
   27.2929    9.3998    3.2930 C   0  0  2  0  0  0  0  0  0  0  0  0
   26.6868    8.2508    3.9943 O   0  0  0  0  0  0  0  0  0  0  0  0
   26.2330   10.0944    2.2953 C   0  0  1  0  0  0  0  0  0  0  0  0
   25.1834   10.5933    3.0628 O   0  0  0  0  0  0  0  0  0  0  0  0
   26.6905    8.0265    5.2642 C   0  0  1  0  0  0  0  0  0  0  0  0
   26.2254    9.2116    6.1606 C   0  0  2  0  0  0  0  0  0  0  0  0
   27.3478    9.9618    6.5031 O   0  0  0  0  0  0  0  0  0  0  0  0
   25.7205    8.4354    7.3054 C   0  0  1  0  0  0  0  0  0  0  0  0
   24.9999    7.1670    6.7527 C   0  0  2  0  0  0  0  0  0  0  0  0
   25.8776    6.8849    5.6904 O   0  0  0  0  0  0  0  0  0  0  0  0
   23.5072    7.2644    6.4348 C   0  0  0  0  0  0  0  0  0  0  0  0
   22.8863    7.7737    7.6000 O   0  0  0  0  0  0  0  0  0  0  0  0
   26.6917    7.5140    9.3624 C   0  0  2  0  0  0  0  0  0  0  0  0
   26.9125    8.1031    8.1509 O   0  0  0  0  0  0  0  0  0  0  0  0
   27.9695    7.2532   10.1043 C   0  0  1  0  0  0  0  0  0  0  0  0
   24.3950    3.4078   11.6395 N   0  0  0  0  0  0  0  0  0  0  0  0
   25.0927   13.3092   -1.6570 O   0  0  0  0  0  0  0  0  0  0  0  0
   27.6444    6.5275   11.4672 C   0  0  2  0  0  0  0  0  0  0  0  0
   26.8475    5.1883   11.2929 C   0  0  1  0  0  0  0  0  0  0  0  0
   25.6192    5.4662   10.5860 C   0  0  1  0  0  0  0  0  0  0  0  0
   25.9047    6.1652    9.2703 O   0  0  0  0  0  0  0  0  0  0  0  0
   24.7966    4.1247   10.3474 C   0  0  0  0  0  0  0  0  0  0  0  0
   28.8035    6.4067    9.3465 N   0  0  0  0  0  0  0  0  0  0  0  0
   32.9068    6.4631    4.4528 O   0  0  0  0  0  0  0  0  0  0  0  0
   24.2872   11.3599   -2.5002 C   0  0  0  0  0  0  0  0  0  0  0  0
   27.4835    4.4686   10.6643 O   0  0  0  0  0  0  0  0  0  0  0  0
   26.9825    7.2270   12.0964 O   0  0  0  0  0  0  0  0  0  0  0  0
   25.4124   11.1647   -0.4274 C   0  0  0  0  0  0  0  0  0  0  0  0
   23.2374   10.4916   -2.3003 C   0  0  0  0  0  0  0  0  0  0  0  0
   24.4629   12.0601   -1.3804 C   0  0  1  0  0  0  0  0  0  0  0  0
   31.6111    4.2635    3.6886 F   0  0  0  0  0  0  0  0  0  0  0  0
  1  2  1  6  0  0  0
  1 10  1  0  0  0  0
  1  3  1  0  0  0  0
  3  4  1  6  0  0  0
  3  6  1  0  0  0  0
  5 46  2  0  0  0  0
  6 42  1  1  0  0  0
  6  8  1  0  0  0  0
  7 47  1  0  0  0  0
  8  9  1  0  0  0  0
  8 49  1  1  0  0  0
  9 10  1  0  0  0  0
  9 11  1  1  0  0  0
 11 12  1  0  0  0  0
 13 14  1  6  0  0  0
 13 15  1  0  0  0  0
 13 21  1  0  0  0  0
 14 46  1  0  0  0  0
 15 16  1  0  0  0  0
 16 17  1  6  0  0  0
 16 18  1  0  0  0  0
 18  2  1  1  0  0  0
 18 19  1  0  0  0  0
 19 20  1  6  0  0  0
 19 21  1  0  0  0  0
 21 22  1  1  0  0  0
 23 20  1  6  0  0  0
 23 24  1  0  0  0  0
 23 28  1  0  0  0  0
 24 25  1  1  0  0  0
 24 26  1  0  0  0  0
 26 27  1  0  0  0  0
 26 32  1  1  0  0  0
 27 28  1  0  0  0  0
 27 29  1  6  0  0  0
 29 30  1  0  0  0  0
 31 32  1  6  0  0  0
 31 33  1  0  0  0  0
 31 39  1  0  0  0  0
 33 36  1  0  0  0  0
 33 41  1  6  0  0  0
 34 40  1  0  0  0  0
 35 48  1  0  0  0  0
 36 37  1  0  0  0  0
 36 45  1  1  0  0  0
 37 38  1  0  0  0  0
 37 44  1  6  0  0  0
 38 39  1  0  0  0  0
 38 40  1  6  0  0  0
 43 47  1  0  0  0  0
 46 48  1  0  0  0  0
 48 43  1  6  0  0  0
M  END
>  <CHROM.1>
-176.48666539,-170.23072519,-175.85365992,62.79166380,112.68238064,50.53402175
172.58396935,-52.58266122,-179.36150134,60.52248579,-177.52569946,-155.26153741
-141.40432512,27.27748620,7.89144619,4.59527322,-1.64529861,-0.45506845,1.94688265

>  <Name>
ligand

>  <RI>
0

>  <Rbt.Current_Directory>
/home/itssahil/PROJECTS/Mol_Feturizer/New_Systems/rnas/4PDQ

>  <Rbt.Executable>
rbdock ($Id: //depot/dev/client3/rdock/2013.1/src/exe/rbdock.cxx#4 $)

>  <Rbt.Library>
libRbt.so (2013.1, Build901 2013/11/27)

>  <Rbt.Parameter_File>
/export/apps/rDock/src/rDock_2013.1_src/data/scripts/dock_solv.prm

>  <Rbt.Receptor>
prm/pocket_docking_7.prm

>  <SCORE>
-12.4733

>  <SCORE.INTER>
-2.37137

>  <SCORE.INTER.CONST>
1

>  <SCORE.INTER.POLAR>
0

>  <SCORE.INTER.ROT>
13

>  <SCORE.INTER.SOLV>
14.8016

>  <SCORE.INTER.VDW>
-18.7814

>  <SCORE.INTER.norm>
-0.0483954

>  <SCORE.INTRA>
-10.102

>  <SCORE.INTRA.DIHEDRAL>
-22.8718

>  <SCORE.INTRA.DIHEDRAL.0>
34.5115

>  <SCORE.INTRA.POLAR>
0

>  <SCORE.INTRA.POLAR.0>
0

>  <SCORE.INTRA.REPUL>
0

>  <SCORE.INTRA.REPUL.0>
0

>  <SCORE.INTRA.SOLV>
-3.16229

>  <SCORE.INTRA.SOLV.lig_0>
-122.812

>  <SCORE.INTRA.VDW>
2.9151

>  <SCORE.INTRA.VDW.0>
-7.46208

>  <SCORE.INTRA.norm>
-0.206163

>  <SCORE.RESTR>
0

>  <SCORE.RESTR.CAVITY>
0

>  <SCORE.RESTR.norm>
0

>  <SCORE.SYSTEM>
0

>  <SCORE.SYSTEM.CONST>
0

>  <SCORE.SYSTEM.DIHEDRAL>
0

>  <SCORE.SYSTEM.SOLV>
0

>  <SCORE.SYSTEM.norm>
0

>  <SCORE.heavy>
49

>  <SCORE.norm>
-0.254558

>  <RMSD>
7.128

$$$$
ligand
 OpenBabel11021811513D
libRbt.so/2013.1/901 2013/11/27
 49 52  0  0  0  0  0  0  0  0999 V2000
   32.0526    9.6026    0.8767 C   0  0  2  0  0  0  0  0  0  0  0  0
   31.0502   10.5237    1.1909 O   0  0  0  0  0  0  0  0  0  0  0  0
   33.0856    9.5174    2.0611 C   0  0  2  0  0  0  0  0  0  0  0  0
   32.3576    9.0967    3.3281 N   0  0  0  0  0  0  0  0  0  0  0  0
   26.5747   13.6218   -2.5002 O   0  0  0  0  0  0  0  0  0  0  0  0
   33.8046   10.8739    2.2474 C   0  0  2  0  0  0  0  0  0  0  0  0
   23.0338   10.2436   -1.6860 N   0  0  0  0  0  0  0  0  0  0  0  0
   34.5156   11.2871    0.9491 C   0  0  2  0  0  0  0  0  0  0  0  0
   33.5042   11.3819   -0.2706 C   0  0  2  0  0  0  0  0  0  0  0  0
   32.7799   10.0391   -0.3824 O   0  0  0  0  0  0  0  0  0  0  0  0
   34.2398   11.7463   -1.5927 C   0  0  0  0  0  0  0  0  0  0  0  0
   35.1922   12.7887   -1.4505 N   0  0  0  0  0  0  0  0  0  0  0  0
   27.2256   12.1065   -0.1012 C   0  0  2  0  0  0  0  0  0  0  0  0
   25.8589   12.1445   -0.6993 N   0  0  0  0  0  0  0  0  0  0  0  0
   28.1654   11.3075   -1.1282 C   0  0  0  0  0  0  0  0  0  0  0  0
   29.6410   11.2410   -0.5838 C   0  0  2  0  0  0  0  0  0  0  0  0
   30.5078   10.4935   -1.5067 N   0  0  0  0  0  0  0  0  0  0  0  0
   29.6732   10.5357    0.7868 C   0  0  2  0  0  0  0  0  0  0  0  0
   28.7519   11.2971    1.8234 C   0  0  2  0  0  0  0  0  0  0  0  0
   28.8568   10.5537    3.0945 O   0  0  0  0  0  0  0  0  0  0  0  0
   27.2356   11.2940    1.2736 C   0  0  1  0  0  0  0  0  0  0  0  0
   26.4403   11.9608    2.2023 O   0  0  0  0  0  0  0  0  0  0  0  0
   28.2368   10.8083    4.1961 C   0  0  1  0  0  0  0  0  0  0  0  0
   28.4241    9.7618    5.3338 C   0  0  2  0  0  0  0  0  0  0  0  0
   27.4062    8.8173    5.2251 O   0  0  0  0  0  0  0  0  0  0  0  0
   28.2175   10.6530    6.4875 C   0  0  1  0  0  0  0  0  0  0  0  0
   28.8968   12.0215    6.1723 C   0  0  2  0  0  0  0  0  0  0  0  0
   28.5695   12.0977    4.8064 O   0  0  0  0  0  0  0  0  0  0  0  0
   30.3635   12.2076    6.5634 C   0  0  0  0  0  0  0  0  0  0  0  0
   30.7282   13.5039    6.1283 O   0  0  0  0  0  0  0  0  0  0  0  0
   26.0984    9.7847    7.3699 C   0  0  2  0  0  0  0  0  0  0  0  0
   26.7348   10.7704    6.6722 O   0  0  0  0  0  0  0  0  0  0  0  0
   24.6325   10.0624    7.5291 C   0  0  1  0  0  0  0  0  0  0  0  0
   26.8016    9.5722   11.8488 N   0  0  0  0  0  0  0  0  0  0  0  0
   23.8132   14.1269   -3.1169 O   0  0  0  0  0  0  0  0  0  0  0  0
   23.9723    8.9132    8.3855 C   0  0  2  0  0  0  0  0  0  0  0  0
   24.6330    8.7190    9.7942 C   0  0  1  0  0  0  0  0  0  0  0  0
   26.0393    8.4437    9.6148 C   0  0  1  0  0  0  0  0  0  0  0  0
   26.6983    9.5352    8.7930 O   0  0  0  0  0  0  0  0  0  0  0  0
   26.7610    8.2825   11.0241 C   0  0  0  0  0  0  0  0  0  0  0  0
   24.4434   11.2804    8.2124 N   0  0  0  0  0  0  0  0  0  0  0  0
   34.5767   10.7748    3.0843 O   0  0  0  0  0  0  0  0  0  0  0  0
   24.1040   11.8833   -3.3214 C   0  0  0  0  0  0  0  0  0  0  0  0
   24.5181    9.6964   10.3851 O   0  0  0  0  0  0  0  0  0  0  0  0
   24.1058    7.9217    7.8178 O   0  0  0  0  0  0  0  0  0  0  0  0
   25.6813   12.9749   -1.9352 C   0  0  0  0  0  0  0  0  0  0  0  0
   24.0181   10.7198   -2.5900 C   0  0  0  0  0  0  0  0  0  0  0  0
   24.1571   12.9048   -2.4675 C   0  0  1  0  0  0  0  0  0  0  0  0
   35.5062   10.3434    0.6244 F   0  0  0  0  0  0  0  0  0  0  0  0
  1  2  1  1  0  0  0
  1 10  1  0  0  0  0
  1  3  1  0  0  0  0
  3  4  1  1  0  0  0
  3  6  1  0  0  0  0
  5 46  2  0  0  0  0
  6 42  1  1  0  0  0
  6  8  1  0  0  0  0
  7 47  1  0  0  0  0
  8  9  1  0  0  0  0
  8 49  1  6  0  0  0
  9 10  1  0  0  0  0
  9 11  1  6  0  0  0
 11 12  1  0  0  0  0
 13 14  1  6  0  0  0
 13 15  1  0  0  0  0
 13 21  1  0  0  0  0
 14 46  1  0  0  0  0
 15 16  1  0  0  0  0
 16 17  1  6  0  0  0
 16 18  1  0  0  0  0
 18  2  1  1  0  0  0
 18 19  1  0  0  0  0
 19 20  1  1  0  0  0
 19 21  1  0  0  0  0
 21 22  1  1  0  0  0
 23 20  1  6  0  0  0
 23 24  1  0  0  0  0
 23 28  1  0  0  0  0
 24 25  1  6  0  0  0
 24 26  1  0  0  0  0
 26 27  1  0  0  0  0
 26 32  1  6  0  0  0
 27 28  1  0  0  0  0
 27 29  1  6  0  0  0
 29 30  1  0  0  0  0
 31 32  1  1  0  0  0
 31 33  1  0  0  0  0
 31 39  1  0  0  0  0
 33 36  1  0  0  0  0
 33 41  1  1  0  0  0
 34 40  1  0  0  0  0
 35 48  1  0  0  0  0
 36 37  1  0  0  0  0
 36 45  1  6  0  0  0
 37 38  1  0  0  0  0
 37 44  1  1  0  0  0
 38 39  1  0  0  0  0
 38 40  1  1  0  0  0
 43 47  1  0  0  0  0
 46 48  1  0  0  0  0
 48 43  1  6  0  0  0
M  END
>  <CHROM.1>
-149.47913378,-85.67312360,-44.38267797,-68.33652340,-177.87522026,173.59789419
82.99277505,178.16886665,177.44285932,-66.38213602,62.33388394,-161.11586683
-31.39260218,28.45996586,10.82600347,3.08485120,-1.14160537,-0.04200599,1.78947127

>  <Name>
ligand

>  <RI>
0

>  <Rbt.Current_Directory>
/home/itssahil/PROJECTS/Mol_Feturizer/New_Systems/rnas/4PDQ

>  <Rbt.Executable>
rbdock ($Id: //depot/dev/client3/rdock/2013.1/src/exe/rbdock.cxx#4 $)

>  <Rbt.Library>
libRbt.so (2013.1, Build901 2013/11/27)

>  <Rbt.Parameter_File>
/export/apps/rDock/src/rDock_2013.1_src/data/scripts/dock_solv.prm

>  <Rbt.Receptor>
prm/pocket_docking_5.prm

>  <SCORE>
-9.28262

>  <SCORE.INTER>
-3.27249

>  <SCORE.INTER.CONST>
1

>  <SCORE.INTER.POLAR>
0

>  <SCORE.INTER.ROT>
13

>  <SCORE.INTER.SOLV>
25.2783

>  <SCORE.INTER.VDW>
-22.8744

>  <SCORE.INTER.norm>
-0.0667856

>  <SCORE.INTRA>
-6.01013

>  <SCORE.INTRA.DIHEDRAL>
-21.4661

>  <SCORE.INTRA.DIHEDRAL.0>
34.5115

>  <SCORE.INTRA.POLAR>
0

>  <SCORE.INTRA.POLAR.0>
0

>  <SCORE.INTRA.REPUL>
0

>  <SCORE.INTRA.REPUL.0>
0

>  <SCORE.INTRA.SOLV>
1.83813

>  <SCORE.INTRA.SOLV.lig_0>
-122.812

>  <SCORE.INTRA.VDW>
3.80387

>  <SCORE.INTRA.VDW.0>
-7.46208

>  <SCORE.INTRA.norm>
-0.122656

>  <SCORE.RESTR>
0

>  <SCORE.RESTR.CAVITY>
0

>  <SCORE.RESTR.norm>
0

>  <SCORE.SYSTEM>
0

>  <SCORE.SYSTEM.CONST>
0

>  <SCORE.SYSTEM.DIHEDRAL>
0

>  <SCORE.SYSTEM.SOLV>
0

>  <SCORE.SYSTEM.norm>
0

>  <SCORE.heavy>
49

>  <SCORE.norm>
-0.189441

>  <RMSD>
7.129

$$$$
ligand
 OpenBabel11021811513D
libRbt.so/2013.1/901 2013/11/27
 49 52  0  0  0  0  0  0  0  0999 V2000
   32.1327    9.2495    0.7234 C   0  0  2  0  0  0  0  0  0  0  0  0
   31.1072   10.1065    1.1307 O   0  0  0  0  0  0  0  0  0  0  0  0
   33.1751    9.0770    1.8900 C   0  0  2  0  0  0  0  0  0  0  0  0
   32.4670    8.5129    3.1118 N   0  0  0  0  0  0  0  0  0  0  0  0
   25.9022    9.8318   -1.3194 O   0  0  0  0  0  0  0  0  0  0  0  0
   33.8574   10.4283    2.2069 C   0  0  2  0  0  0  0  0  0  0  0  0
   24.4383   12.9439   -4.6570 N   0  0  0  0  0  0  0  0  0  0  0  0
   34.5484   10.9874    0.9534 C   0  0  2  0  0  0  0  0  0  0  0  0
   33.5272   11.1737   -0.2475 C   0  0  2  0  0  0  0  0  0  0  0  0
   32.8397    9.8285   -0.4889 O   0  0  0  0  0  0  0  0  0  0  0  0
   34.2440   11.6874   -1.5297 C   0  0  0  0  0  0  0  0  0  0  0  0
   35.1477   12.7556   -1.2924 N   0  0  0  0  0  0  0  0  0  0  0  0
   27.3999   12.0003   -0.0828 C   0  0  2  0  0  0  0  0  0  0  0  0
   26.0955   12.2002   -0.7796 N   0  0  0  0  0  0  0  0  0  0  0  0
   28.4437   11.4737   -1.1827 C   0  0  0  0  0  0  0  0  0  0  0  0
   29.8621   11.2585   -0.5344 C   0  0  2  0  0  0  0  0  0  0  0  0
   30.8227   10.7566   -1.5280 N   0  0  0  0  0  0  0  0  0  0  0  0
   29.7744   10.2329    0.6134 C   0  0  2  0  0  0  0  0  0  0  0  0
   28.7487   10.7205    1.7148 C   0  0  2  0  0  0  0  0  0  0  0  0
   28.7435    9.6821    2.7642 O   0  0  0  0  0  0  0  0  0  0  0  0
   27.2913   10.8700    1.0402 C   0  0  1  0  0  0  0  0  0  0  0  0
   26.4026   11.2917    2.0260 O   0  0  0  0  0  0  0  0  0  0  0  0
   28.0413    9.6749    3.8457 C   0  0  1  0  0  0  0  0  0  0  0  0
   27.5354    8.2784    4.3131 C   0  0  2  0  0  0  0  0  0  0  0  0
   26.2813    8.0608    3.7478 O   0  0  0  0  0  0  0  0  0  0  0  0
   27.4407    8.5517    5.7569 C   0  0  1  0  0  0  0  0  0  0  0  0
   28.6576    9.4386    6.1645 C   0  0  2  0  0  0  0  0  0  0  0  0
   28.7076   10.2499    5.0166 O   0  0  0  0  0  0  0  0  0  0  0  0
   29.9474    8.7410    6.5987 C   0  0  0  0  0  0  0  0  0  0  0  0
   30.8040    9.7578    7.0835 O   0  0  0  0  0  0  0  0  0  0  0  0
   25.5344    9.1123    7.1974 C   0  0  2  0  0  0  0  0  0  0  0  0
   26.1254    9.2368    5.9732 O   0  0  0  0  0  0  0  0  0  0  0  0
   24.3878   10.0644    7.3698 C   0  0  1  0  0  0  0  0  0  0  0  0
   27.7069   10.7788   10.8470 N   0  0  0  0  0  0  0  0  0  0  0  0
   22.9590   10.8679   -1.2895 O   0  0  0  0  0  0  0  0  0  0  0  0
   23.7866    9.9023    8.8198 C   0  0  2  0  0  0  0  0  0  0  0  0
   24.8361   10.1203    9.9643 C   0  0  1  0  0  0  0  0  0  0  0  0
   25.9234    9.1875    9.7827 C   0  0  1  0  0  0  0  0  0  0  0  0
   26.5194    9.3231    8.3943 O   0  0  0  0  0  0  0  0  0  0  0  0
   27.0365    9.4030   10.8998 C   0  0  0  0  0  0  0  0  0  0  0  0
   24.8379   11.3926    7.2293 N   0  0  0  0  0  0  0  0  0  0  0  0
   34.6372   10.2689    3.0272 O   0  0  0  0  0  0  0  0  0  0  0  0
   24.0061   12.6881   -2.1558 C   0  0  0  0  0  0  0  0  0  0  0  0
   25.2455   11.1894    9.8804 O   0  0  0  0  0  0  0  0  0  0  0  0
   23.3979    8.8251    8.9279 O   0  0  0  0  0  0  0  0  0  0  0  0
   25.4476   10.9835   -1.3701 C   0  0  0  0  0  0  0  0  0  0  0  0
   24.7178   13.0680   -3.2716 C   0  0  0  0  0  0  0  0  0  0  0  0
   24.0429   11.3586   -2.0755 C   0  0  1  0  0  0  0  0  0  0  0  0
   35.5628   10.1088    0.5334 F   0  0  0  0  0  0  0  0  0  0  0  0
  1  2  1  1  0  0  0
  1 10  1  0  0  0  0
  1  3  1  0  0  0  0
  3  4  1  1  0  0  0
  3  6  1  0  0  0  0
  5 46  2  0  0  0  0
  6 42  1  1  0  0  0
  6  8  1  0  0  0  0
  7 47  1  0  0  0  0
  8  9  1  0  0  0  0
  8 49  1  6  0  0  0
  9 10  1  0  0  0  0
  9 11  1  6  0  0  0
 11 12  1  0  0  0  0
 13 14  1  6  0  0  0
 13 15  1  0  0  0  0
 13 21  1  0  0  0  0
 14 46  1  0  0  0  0
 15 16  1  0  0  0  0
 16 17  1  6  0  0  0
 16 18  1  0  0  0  0
 18  2  1  1  0  0  0
 18 19  1  0  0  0  0
 19 20  1  1  0  0  0
 19 21  1  0  0  0  0
 21 22  1  1  0  0  0
 23 20  1  6  0  0  0
 23 24  1  0  0  0  0
 23 28  1  0  0  0  0
 24 25  1  6  0  0  0
 24 26  1  0  0  0  0
 26 27  1  0  0  0  0
 26 32  1  6  0  0  0
 27 28  1  0  0  0  0
 27 29  1  6  0  0  0
 29 30  1  0  0  0  0
 31 32  1  6  0  0  0
 31 33  1  0  0  0  0
 31 39  1  0  0  0  0
 33 36  1  0  0  0  0
 33 41  1  1  0  0  0
 34 40  1  0  0  0  0
 35 48  1  0  0  0  0
 36 37  1  0  0  0  0
 36 45  1  6  0  0  0
 37 38  1  0  0  0  0
 37 44  1  6  0  0  0
 38 39  1  0  0  0  0
 38 40  1  1  0  0  0
 43 47  1  0  0  0  0
 46 48  1  0  0  0  0
 48 43  1  1  0  0  0
M  END
>  <CHROM.1>
-158.35736863,-88.18407997,-45.61091338,62.96873343,-179.61732825,144.30114962
153.38258287,-172.04385297,168.13299492,-63.07701215,71.16553824,-158.07007887
71.28749350,28.42335741,10.34697690,2.99281608,-1.07929734,-0.08361331,1.76444493

>  <Name>
ligand

>  <RI>
0

>  <Rbt.Current_Directory>
/home/itssahil/PROJECTS/Mol_Feturizer/New_Systems/rnas/4PDQ

>  <Rbt.Executable>
rbdock ($Id: //depot/dev/client3/rdock/2013.1/src/exe/rbdock.cxx#4 $)

>  <Rbt.Library>
libRbt.so (2013.1, Build901 2013/11/27)

>  <Rbt.Parameter_File>
/export/apps/rDock/src/rDock_2013.1_src/data/scripts/dock_solv.prm

>  <Rbt.Receptor>
prm/pocket_docking_3.prm

>  <SCORE>
-1.21706

>  <SCORE.INTER>
-0.245338

>  <SCORE.INTER.CONST>
1

>  <SCORE.INTER.POLAR>
0

>  <SCORE.INTER.ROT>
13

>  <SCORE.INTER.SOLV>
20.0499

>  <SCORE.INTER.VDW>
-19.1135

>  <SCORE.INTER.norm>
-0.0050069

>  <SCORE.INTRA>
-0.983484

>  <SCORE.INTRA.DIHEDRAL>
-15.5754

>  <SCORE.INTRA.DIHEDRAL.0>
34.5115

>  <SCORE.INTRA.POLAR>
0

>  <SCORE.INTRA.POLAR.0>
0

>  <SCORE.INTRA.REPUL>
0

>  <SCORE.INTRA.REPUL.0>
0

>  <SCORE.INTRA.SOLV>
2.32336

>  <SCORE.INTRA.SOLV.lig_0>
-122.812

>  <SCORE.INTRA.VDW>
5.64255

>  <SCORE.INTRA.VDW.0>
-7.46208

>  <SCORE.INTRA.norm>
-0.0200711

>  <SCORE.RESTR>
0.0117569

>  <SCORE.RESTR.CAVITY>
0.0117569

>  <SCORE.RESTR.norm>
0.000239937

>  <SCORE.SYSTEM>
0

>  <SCORE.SYSTEM.CONST>
0

>  <SCORE.SYSTEM.DIHEDRAL>
0

>  <SCORE.SYSTEM.SOLV>
0

>  <SCORE.SYSTEM.norm>
0

>  <SCORE.heavy>
49

>  <SCORE.norm>
-0.0248381

>  <RMSD>
7.131

$$$$
ligand
 OpenBabel11021811513D
libRbt.so/2013.1/901 2013/11/27
 49 52  0  0  0  0  0  0  0  0999 V2000
   32.4862    8.9960    2.6159 C   0  0  2  0  0  0  0  0  0  0  0  0
   31.7322   10.0962    2.1998 O   0  0  0  0  0  0  0  0  0  0  0  0
   33.7171    9.4866    3.4652 C   0  0  2  0  0  0  0  0  0  0  0  0
   33.2129   10.2689    4.6678 N   0  0  0  0  0  0  0  0  0  0  0  0
   27.5954   11.6573   -2.7138 O   0  0  0  0  0  0  0  0  0  0  0  0
   34.6666   10.3414    2.5937 C   0  0  2  0  0  0  0  0  0  0  0  0
   22.4377   12.2601   -3.3719 N   0  0  0  0  0  0  0  0  0  0  0  0
   35.1466    9.5369    1.3755 C   0  0  2  0  0  0  0  0  0  0  0  0
   33.9307    9.0228    0.4941 C   0  0  2  0  0  0  0  0  0  0  0  0
   32.9939    8.2300    1.4075 O   0  0  0  0  0  0  0  0  0  0  0  0
   34.4216    8.1625   -0.7062 C   0  0  0  0  0  0  0  0  0  0  0  0
   35.2605    8.8649   -1.6100 N   0  0  0  0  0  0  0  0  0  0  0  0
   28.1611   11.4292    0.1327 C   0  0  2  0  0  0  0  0  0  0  0  0
   26.7800   11.3998   -0.4320 N   0  0  0  0  0  0  0  0  0  0  0  0
   28.8588   10.0382   -0.2609 C   0  0  0  0  0  0  0  0  0  0  0  0
   30.3374    9.9942    0.2778 C   0  0  2  0  0  0  0  0  0  0  0  0
   30.9810    8.7159   -0.0591 N   0  0  0  0  0  0  0  0  0  0  0  0
   30.3518   10.1526    1.8113 C   0  0  2  0  0  0  0  0  0  0  0  0
   29.6662   11.5143    2.2341 C   0  0  2  0  0  0  0  0  0  0  0  0
   29.7373   11.5736    3.7075 O   0  0  0  0  0  0  0  0  0  0  0  0
   28.1350   11.5063    1.7276 C   0  0  1  0  0  0  0  0  0  0  0  0
   27.5476   12.7079    2.1158 O   0  0  0  0  0  0  0  0  0  0  0  0
   28.9385   11.0074    4.5466 C   0  0  1  0  0  0  0  0  0  0  0  0
   27.5768   11.7277    4.7740 C   0  0  2  0  0  0  0  0  0  0  0  0
   27.7280   12.6133    5.8383 O   0  0  0  0  0  0  0  0  0  0  0  0
   26.7697   10.5559    5.1526 C   0  0  1  0  0  0  0  0  0  0  0  0
   27.2068    9.3550    4.2580 C   0  0  2  0  0  0  0  0  0  0  0  0
   28.5873    9.6223    4.2243 O   0  0  0  0  0  0  0  0  0  0  0  0
   26.4897    9.1496    2.9228 C   0  0  0  0  0  0  0  0  0  0  0  0
   27.1006    8.0279    2.3135 O   0  0  0  0  0  0  0  0  0  0  0  0
   26.2208    9.4299    7.2631 C   0  0  2  0  0  0  0  0  0  0  0  0
   27.0266   10.3172    6.6098 O   0  0  0  0  0  0  0  0  0  0  0  0
   24.8143    9.9356    7.3942 C   0  0  1  0  0  0  0  0  0  0  0  0
   27.9220    7.1211   10.8099 N   0  0  0  0  0  0  0  0  0  0  0  0
   24.4594   10.3583   -1.7588 O   0  0  0  0  0  0  0  0  0  0  0  0
   23.9543    8.8869    8.2009 C   0  0  2  0  0  0  0  0  0  0  0  0
   24.5346    8.5549    9.6192 C   0  0  1  0  0  0  0  0  0  0  0  0
   25.8833    8.0616    9.4665 C   0  0  1  0  0  0  0  0  0  0  0  0
   26.7319    9.0527    8.6928 O   0  0  0  0  0  0  0  0  0  0  0  0
   26.5290    7.7523   10.8880 C   0  0  0  0  0  0  0  0  0  0  0  0
   24.8029   11.1512    8.1073 N   0  0  0  0  0  0  0  0  0  0  0  0
   35.5708   10.6508    3.2206 O   0  0  0  0  0  0  0  0  0  0  0  0
   24.5489   12.6168   -1.9848 C   0  0  0  0  0  0  0  0  0  0  0  0
   24.5605    9.5233   10.2349 O   0  0  0  0  0  0  0  0  0  0  0  0
   23.9437    7.9010    7.6084 O   0  0  0  0  0  0  0  0  0  0  0  0
   26.6518   11.5331   -1.9201 C   0  0  0  0  0  0  0  0  0  0  0  0
   23.5798   12.9581   -2.9015 C   0  0  0  0  0  0  0  0  0  0  0  0
   25.1030   11.4704   -2.3771 C   0  0  1  0  0  0  0  0  0  0  0  0
   35.8834    8.4174    1.8009 F   0  0  0  0  0  0  0  0  0  0  0  0
  1  2  1  6  0  0  0
  1 10  1  0  0  0  0
  1  3  1  0  0  0  0
  3  4  1  1  0  0  0
  3  6  1  0  0  0  0
  5 46  2  0  0  0  0
  6 42  1  1  0  0  0
  6  8  1  0  0  0  0
  7 47  1  0  0  0  0
  8  9  1  0  0  0  0
  8 49  1  1  0  0  0
  9 10  1  0  0  0  0
  9 11  1  6  0  0  0
 11 12  1  0  0  0  0
 13 14  1  1  0  0  0
 13 15  1  0  0  0  0
 13 21  1  0  0  0  0
 14 46  1  0  0  0  0
 15 16  1  0  0  0  0
 16 17  1  1  0  0  0
 16 18  1  0  0  0  0
 18  2  1  6  0  0  0
 18 19  1  0  0  0  0
 19 20  1  1  0  0  0
 19 21  1  0  0  0  0
 21 22  1  6  0  0  0
 23 20  1  6  0  0  0
 23 24  1  0  0  0  0
 23 28  1  0  0  0  0
 24 25  1  1  0  0  0
 24 26  1  0  0  0  0
 26 27  1  0  0  0  0
 26 32  1  1  0  0  0
 27 28  1  0  0  0  0
 27 29  1  6  0  0  0
 29 30  1  0  0  0  0
 31 32  1  1  0  0  0
 31 33  1  0  0  0  0
 31 39  1  0  0  0  0
 33 36  1  0  0  0  0
 33 41  1  1  0  0  0
 34 40  1  0  0  0  0
 35 48  1  0  0  0  0
 36 37  1  0  0  0  0
 36 45  1  6  0  0  0
 37 38  1  0  0  0  0
 37 44  1  1  0  0  0
 38 39  1  0  0  0  0
 38 40  1  1  0  0  0
 43 47  1  0  0  0  0
 46 48  1  0  0  0  0
 48 43  1  1  0  0  0
M  END
>  <CHROM.1>
-157.16591252,-93.64935646,-61.42413218,-72.13422670,-82.17462265,-78.87258534
168.80751378,178.54890988,-68.11275929,175.48451758,56.44124813,-93.49106503
130.74504364,28.63252924,10.06403939,3.17149533,-0.93130578,-0.16995694,1.79433296

>  <Name>
ligand

>  <RI>
0

>  <Rbt.Current_Directory>
/home/itssahil/PROJECTS/Mol_Feturizer/New_Systems/rnas/4PDQ

>  <Rbt.Executable>
rbdock ($Id: //depot/dev/client3/rdock/2013.1/src/exe/rbdock.cxx#4 $)

>  <Rbt.Library>
libRbt.so (2013.1, Build901 2013/11/27)

>  <Rbt.Parameter_File>
/export/apps/rDock/src/rDock_2013.1_src/data/scripts/dock_solv.prm

>  <Rbt.Receptor>
prm/pocket_docking_3.prm

>  <SCORE>
-3.14853

>  <SCORE.INTER>
3.86902

>  <SCORE.INTER.CONST>
1

>  <SCORE.INTER.POLAR>
0

>  <SCORE.INTER.ROT>
13

>  <SCORE.INTER.SOLV>
20.4081

>  <SCORE.INTER.VDW>
-16.49

>  <SCORE.INTER.norm>
0.0789597

>  <SCORE.INTRA>
-7.02753

>  <SCORE.INTRA.DIHEDRAL>
-18.9332

>  <SCORE.INTRA.DIHEDRAL.0>
34.5115

>  <SCORE.INTRA.POLAR>
0

>  <SCORE.INTRA.POLAR.0>
0

>  <SCORE.INTRA.REPUL>
0

>  <SCORE.INTRA.REPUL.0>
0

>  <SCORE.INTRA.SOLV>
1.45051

>  <SCORE.INTRA.SOLV.lig_0>
-122.812

>  <SCORE.INTRA.VDW>
1.71383

>  <SCORE.INTRA.VDW.0>
-7.46208

>  <SCORE.INTRA.norm>
-0.143419

>  <SCORE.RESTR>
0.00997385

>  <SCORE.RESTR.CAVITY>
0.00997385

>  <SCORE.RESTR.norm>
0.000203548

>  <SCORE.SYSTEM>
0

>  <SCORE.SYSTEM.CONST>
0

>  <SCORE.SYSTEM.DIHEDRAL>
0

>  <SCORE.SYSTEM.SOLV>
0

>  <SCORE.SYSTEM.norm>
0

>  <SCORE.heavy>
49

>  <SCORE.norm>
-0.0642557

>  <RMSD>
7.153

$$$$
ligand
 OpenBabel11021811513D
libRbt.so/2013.1/901 2013/11/27
 49 52  0  0  0  0  0  0  0  0999 V2000
   32.9713    9.6150    0.8500 C   0  0  2  0  0  0  0  0  0  0  0  0
   31.9107   10.4408    1.2310 O   0  0  0  0  0  0  0  0  0  0  0  0
   34.0315    9.5427    2.0111 C   0  0  2  0  0  0  0  0  0  0  0  0
   33.3619    9.0011    3.2644 N   0  0  0  0  0  0  0  0  0  0  0  0
   26.5961    9.1972   -0.5479 O   0  0  0  0  0  0  0  0  0  0  0  0
   34.6528   10.9368    2.2608 C   0  0  2  0  0  0  0  0  0  0  0  0
   23.5059    7.9570    1.0679 N   0  0  0  0  0  0  0  0  0  0  0  0
   35.3053   11.4713    0.9761 C   0  0  2  0  0  0  0  0  0  0  0  0
   34.2653   11.5567   -0.2200 C   0  0  2  0  0  0  0  0  0  0  0  0
   33.6392   10.1718   -0.3944 O   0  0  0  0  0  0  0  0  0  0  0  0
   34.9454   12.0457   -1.5316 C   0  0  0  0  0  0  0  0  0  0  0  0
   35.8998   11.1359   -2.0562 N   0  0  0  0  0  0  0  0  0  0  0  0
   27.9855   11.7158   -0.0995 C   0  0  2  0  0  0  0  0  0  0  0  0
   26.6011   11.6319   -0.6502 N   0  0  0  0  0  0  0  0  0  0  0  0
   28.9269   10.8404   -1.0608 C   0  0  0  0  0  0  0  0  0  0  0  0
   30.4197   10.8940   -0.5639 C   0  0  2  0  0  0  0  0  0  0  0  0
   31.2892   10.0790   -1.4251 N   0  0  0  0  0  0  0  0  0  0  0  0
   30.5228   10.3532    0.8762 C   0  0  2  0  0  0  0  0  0  0  0  0
   29.6018   11.1929    1.8506 C   0  0  2  0  0  0  0  0  0  0  0  0
   29.7762   10.6056    3.1937 O   0  0  0  0  0  0  0  0  0  0  0  0
   28.0712   11.0680    1.3578 C   0  0  1  0  0  0  0  0  0  0  0  0
   27.2767   11.8064    2.2315 O   0  0  0  0  0  0  0  0  0  0  0  0
   29.0971   10.8798    4.2551 C   0  0  1  0  0  0  0  0  0  0  0  0
   29.2659    9.8845    5.4406 C   0  0  2  0  0  0  0  0  0  0  0  0
   28.2864    8.9013    5.3232 O   0  0  0  0  0  0  0  0  0  0  0  0
   28.9757   10.8111    6.5475 C   0  0  1  0  0  0  0  0  0  0  0  0
   29.6227   12.1897    6.2096 C   0  0  2  0  0  0  0  0  0  0  0  0
   29.3575   12.2024    4.8284 O   0  0  0  0  0  0  0  0  0  0  0  0
   31.0625   12.4423    6.6594 C   0  0  0  0  0  0  0  0  0  0  0  0
   31.0664   12.3103    8.0683 O   0  0  0  0  0  0  0  0  0  0  0  0
   26.8573    9.9647    7.4528 C   0  0  2  0  0  0  0  0  0  0  0  0
   27.4829   10.8830    6.6598 O   0  0  0  0  0  0  0  0  0  0  0  0
   25.3668   10.1361    7.4469 C   0  0  1  0  0  0  0  0  0  0  0  0
   26.8611    7.9648   12.2750 N   0  0  0  0  0  0  0  0  0  0  0  0
   24.3731    9.4069   -2.4902 O   0  0  0  0  0  0  0  0  0  0  0  0
   24.7147    9.0791    8.4203 C   0  0  2  0  0  0  0  0  0  0  0  0
   25.2538    9.1608    9.8905 C   0  0  1  0  0  0  0  0  0  0  0  0
   26.6869    8.9834    9.8713 C   0  0  1  0  0  0  0  0  0  0  0  0
   27.3387    9.9888    8.9411 O   0  0  0  0  0  0  0  0  0  0  0  0
   27.2840    9.1029   11.3418 C   0  0  0  0  0  0  0  0  0  0  0  0
   25.0271   11.4236    7.9088 N   0  0  0  0  0  0  0  0  0  0  0  0
   35.4468   10.8501    3.0783 O   0  0  0  0  0  0  0  0  0  0  0  0
   23.7050   10.0272   -0.4096 C   0  0  0  0  0  0  0  0  0  0  0  0
   25.0138   10.2035   10.3060 O   0  0  0  0  0  0  0  0  0  0  0  0
   24.9719    8.0276    8.0313 O   0  0  0  0  0  0  0  0  0  0  0  0
   26.0227   10.2597   -0.8275 C   0  0  0  0  0  0  0  0  0  0  0  0
   23.9718    8.7322   -0.0251 C   0  0  0  0  0  0  0  0  0  0  0  0
   24.5202   10.3350   -1.4176 C   0  0  1  0  0  0  0  0  0  0  0  0
   36.3556   10.6228    0.5836 F   0  0  0  0  0  0  0  0  0  0  0  0
  1  2  1  1  0  0  0
  1 10  1  0  0  0  0
  1  3  1  0  0  0  0
  3  4  1  1  0  0  0
  3  6  1  0  0  0  0
  5 46  2  0  0  0  0
  6 42  1  1  0  0  0
  6  8  1  0  0  0  0
  7 47  1  0  0  0  0
  8  9  1  0  0  0  0
  8 49  1  6  0  0  0
  9 10  1  0  0  0  0
  9 11  1  6  0  0  0
 11 12  1  0  0  0  0
 13 14  1  6  0  0  0
 13 15  1  0  0  0  0
 13 21  1  0  0  0  0
 14 46  1  0  0  0  0
 15 16  1  0  0  0  0
 16 17  1  6  0  0  0
 16 18  1  0  0  0  0
 18  2  1  1  0  0  0
 18 19  1  0  0  0  0
 19 20  1  1  0  0  0
 19 21  1  0  0  0  0
 21 22  1  1  0  0  0
 23 20  1  6  0  0  0
 23 24  1  0  0  0  0
 23 28  1  0  0  0  0
 24 25  1  6  0  0  0
 24 26  1  0  0  0  0
 26 27  1  0  0  0  0
 26 32  1  6  0  0  0
 27 28  1  0  0  0  0
 27 29  1  6  0  0  0
 29 30  1  0  0  0  0
 31 32  1  6  0  0  0
 31 33  1  0  0  0  0
 31 39  1  0  0  0  0
 33 36  1  0  0  0  0
 33 41  1  1  0  0  0
 34 40  1  0  0  0  0
 35 48  1  0  0  0  0
 36 37  1  0  0  0  0
 36 45  1  6  0  0  0
 37 38  1  0  0  0  0
 37 44  1  6  0  0  0
 38 39  1  0  0  0  0
 38 40  1  1  0  0  0
 43 47  1  0  0  0  0
 46 48  1  0  0  0  0
 48 43  1  1  0  0  0
M  END
>  <CHROM.1>
-147.79716453,-76.87312228,66.14572154,56.05751014,-171.27444932,166.20666555
88.06890908,-59.50498109,-178.72100553,67.16474433,172.56406286,56.36204805
-47.59369978,29.13079010,10.36631409,3.42300116,-0.92285350,0.13122988,1.59638711

>  <Name>
ligand

>  <RI>
0

>  <Rbt.Current_Directory>
/home/itssahil/PROJECTS/Mol_Feturizer/New_Systems/rnas/4PDQ

>  <Rbt.Executable>
rbdock ($Id: //depot/dev/client3/rdock/2013.1/src/exe/rbdock.cxx#4 $)

>  <Rbt.Library>
libRbt.so (2013.1, Build901 2013/11/27)

>  <Rbt.Parameter_File>
/export/apps/rDock/src/rDock_2013.1_src/data/scripts/dock_solv.prm

>  <Rbt.Receptor>
prm/pocket_docking_4.prm

>  <SCORE>
-5.9408

>  <SCORE.INTER>
-4.20455

>  <SCORE.INTER.CONST>
1

>  <SCORE.INTER.POLAR>
0

>  <SCORE.INTER.ROT>
13

>  <SCORE.INTER.SOLV>
24.6423

>  <SCORE.INTER.VDW>
-23.2838

>  <SCORE.INTER.norm>
-0.0858072

>  <SCORE.INTRA>
-1.74176

>  <SCORE.INTRA.DIHEDRAL>
-21.7294

>  <SCORE.INTRA.DIHEDRAL.0>
34.5115

>  <SCORE.INTRA.POLAR>
0

>  <SCORE.INTRA.POLAR.0>
0

>  <SCORE.INTRA.REPUL>
0

>  <SCORE.INTRA.REPUL.0>
0

>  <SCORE.INTRA.SOLV>
1.13072

>  <SCORE.INTRA.SOLV.lig_0>
-122.812

>  <SCORE.INTRA.VDW>
8.55758

>  <SCORE.INTRA.VDW.0>
-7.46208

>  <SCORE.INTRA.norm>
-0.0355461

>  <SCORE.RESTR>
0.0055084

>  <SCORE.RESTR.CAVITY>
0.0055084

>  <SCORE.RESTR.norm>
0.000112416

>  <SCORE.SYSTEM>
0

>  <SCORE.SYSTEM.CONST>
0

>  <SCORE.SYSTEM.DIHEDRAL>
0

>  <SCORE.SYSTEM.SOLV>
0

>  <SCORE.SYSTEM.norm>
0

>  <SCORE.heavy>
49

>  <SCORE.norm>
-0.121241

>  <RMSD>
7.169

$$$$
ligand
 OpenBabel11021811513D
libRbt.so/2013.1/901 2013/11/27
 49 52  0  0  0  0  0  0  0  0999 V2000
   32.1517    9.2063    2.0978 C   0  0  2  0  0  0  0  0  0  0  0  0
   31.7394   10.0421    3.1387 O   0  0  0  0  0  0  0  0  0  0  0  0
   33.3354    9.8825    1.3112 C   0  0  2  0  0  0  0  0  0  0  0  0
   34.4869   10.1423    2.2699 N   0  0  0  0  0  0  0  0  0  0  0  0
   28.9026    5.1624    7.0221 O   0  0  0  0  0  0  0  0  0  0  0  0
   32.8569   11.1893    0.6366 C   0  0  2  0  0  0  0  0  0  0  0  0
   25.2772    7.4232    9.2510 N   0  0  0  0  0  0  0  0  0  0  0  0
   31.6814   10.9045   -0.3113 C   0  0  2  0  0  0  0  0  0  0  0  0
   30.4669   10.2195    0.4473 C   0  0  2  0  0  0  0  0  0  0  0  0
   30.9980    8.9639    1.1413 O   0  0  0  0  0  0  0  0  0  0  0  0
   29.3027    9.8836   -0.5292 C   0  0  0  0  0  0  0  0  0  0  0  0
   28.8294   11.0020   -1.2635 N   0  0  0  0  0  0  0  0  0  0  0  0
   30.2920    7.6578    6.4587 C   0  0  2  0  0  0  0  0  0  0  0  0
   29.7142    7.3264    7.7942 N   0  0  0  0  0  0  0  0  0  0  0  0
   31.3975    8.7972    6.6952 C   0  0  0  0  0  0  0  0  0  0  0  0
   32.0793    9.1915    5.3321 C   0  0  2  0  0  0  0  0  0  0  0  0
   33.0804   10.2495    5.5326 N   0  0  0  0  0  0  0  0  0  0  0  0
   31.0222    9.7095    4.3365 C   0  0  2  0  0  0  0  0  0  0  0  0
   29.9131    8.6099    4.0842 C   0  0  2  0  0  0  0  0  0  0  0  0
   28.9611    9.1958    3.1199 O   0  0  0  0  0  0  0  0  0  0  0  0
   29.1862    8.2719    5.4837 C   0  0  1  0  0  0  0  0  0  0  0  0
   28.2097    7.3094    5.2394 O   0  0  0  0  0  0  0  0  0  0  0  0
   28.0435   10.0674    3.3670 C   0  0  1  0  0  0  0  0  0  0  0  0
   27.6670   11.0058    2.1829 C   0  0  2  0  0  0  0  0  0  0  0  0
   28.4703   12.1412    2.2582 O   0  0  0  0  0  0  0  0  0  0  0  0
   26.2762   11.2977    2.5683 C   0  0  1  0  0  0  0  0  0  0  0  0
   25.6448    9.9896    3.1372 C   0  0  2  0  0  0  0  0  0  0  0  0
   26.7709    9.5078    3.8287 O   0  0  0  0  0  0  0  0  0  0  0  0
   24.9492    9.0390    2.1617 C   0  0  0  0  0  0  0  0  0  0  0  0
   24.4657    7.9589    2.9378 O   0  0  0  0  0  0  0  0  0  0  0  0
   26.8300   12.1003    4.8206 C   0  0  2  0  0  0  0  0  0  0  0  0
   26.3397   12.3996    3.5823 O   0  0  0  0  0  0  0  0  0  0  0  0
   25.7594   11.6012    5.7458 C   0  0  1  0  0  0  0  0  0  0  0  0
   27.9490   15.5696    7.4957 N   0  0  0  0  0  0  0  0  0  0  0  0
   29.5565    5.6715   10.3383 O   0  0  0  0  0  0  0  0  0  0  0  0
   26.3843   11.3245    7.1681 C   0  0  2  0  0  0  0  0  0  0  0  0
   27.0924   12.5736    7.7983 C   0  0  1  0  0  0  0  0  0  0  0  0
   28.1235   13.0290    6.8956 C   0  0  1  0  0  0  0  0  0  0  0  0
   27.5479   13.3021    5.5189 O   0  0  0  0  0  0  0  0  0  0  0  0
   28.8414   14.3253    7.4761 C   0  0  0  0  0  0  0  0  0  0  0  0
   24.7543   12.5783    5.8926 N   0  0  0  0  0  0  0  0  0  0  0  0
   33.7216   11.6389    0.0395 O   0  0  0  0  0  0  0  0  0  0  0  0
   27.7213    6.8529    9.7087 C   0  0  0  0  0  0  0  0  0  0  0  0
   26.3126   13.4067    7.9225 O   0  0  0  0  0  0  0  0  0  0  0  0
   27.1890   10.5106    7.0535 O   0  0  0  0  0  0  0  0  0  0  0  0
   29.0240    6.0016    7.9257 C   0  0  0  0  0  0  0  0  0  0  0  0
   26.4492    6.6238    9.2341 C   0  0  0  0  0  0  0  0  0  0  0  0
   28.4658    5.7845    9.4267 C   0  0  1  0  0  0  0  0  0  0  0  0
   32.0955   10.0430   -1.3426 F   0  0  0  0  0  0  0  0  0  0  0  0
  1  2  1  1  0  0  0
  1 10  1  0  0  0  0
  1  3  1  0  0  0  0
  3  4  1  1  0  0  0
  3  6  1  0  0  0  0
  5 46  2  0  0  0  0
  6 42  1  6  0  0  0
  6  8  1  0  0  0  0
  7 47  1  0  0  0  0
  8  9  1  0  0  0  0
  8 49  1  6  0  0  0
  9 10  1  0  0  0  0
  9 11  1  6  0  0  0
 11 12  1  0  0  0  0
 13 14  1  1  0  0  0
 13 15  1  0  0  0  0
 13 21  1  0  0  0  0
 14 46  1  0  0  0  0
 15 16  1  0  0  0  0
 16 17  1  1  0  0  0
 16 18  1  0  0  0  0
 18  2  1  6  0  0  0
 18 19  1  0  0  0  0
 19 20  1  6  0  0  0
 19 21  1  0  0  0  0
 21 22  1  6  0  0  0
 23 20  1  6  0  0  0
 23 24  1  0  0  0  0
 23 28  1  0  0  0  0
 24 25  1  1  0  0  0
 24 26  1  0  0  0  0
 26 27  1  0  0  0  0
 26 32  1  1  0  0  0
 27 28  1  0  0  0  0
 27 29  1  6  0  0  0
 29 30  1  0  0  0  0
 31 32  1  6  0  0  0
 31 33  1  0  0  0  0
 31 39  1  0  0  0  0
 33 36  1  0  0  0  0
 33 41  1  1  0  0  0
 34 40  1  0  0  0  0
 35 48  1  0  0  0  0
 36 37  1  0  0  0  0
 36 45  1  6  0  0  0
 37 38  1  0  0  0  0
 37 44  1  6  0  0  0
 38 39  1  0  0  0  0
 38 40  1  1  0  0  0
 43 47  1  0  0  0  0
 46 48  1  0  0  0  0
 48 43  1  1  0  0  0
M  END
>  <CHROM.1>
-158.51106783,82.67937153,-55.68367876,-159.53350208,-77.16724024,151.24176774
-70.89403807,-179.47843274,-87.65762818,-68.82328981,-179.22628190,-154.73129231
112.46484185,28.90403383,9.93197498,4.53788164,-0.92226435,-0.65438175,2.22757817

>  <Name>
ligand

>  <RI>
0

>  <Rbt.Current_Directory>
/home/itssahil/PROJECTS/Mol_Feturizer/New_Systems/rnas/4PDQ

>  <Rbt.Executable>
rbdock ($Id: //depot/dev/client3/rdock/2013.1/src/exe/rbdock.cxx#4 $)

>  <Rbt.Library>
libRbt.so (2013.1, Build901 2013/11/27)

>  <Rbt.Parameter_File>
/export/apps/rDock/src/rDock_2013.1_src/data/scripts/dock_solv.prm

>  <Rbt.Receptor>
prm/pocket_docking_4.prm

>  <SCORE>
-0.733367

>  <SCORE.INTER>
4.85548

>  <SCORE.INTER.CONST>
1

>  <SCORE.INTER.POLAR>
0

>  <SCORE.INTER.ROT>
13

>  <SCORE.INTER.SOLV>
24.4196

>  <SCORE.INTER.VDW>
-17.1696

>  <SCORE.INTER.norm>
0.0990914

>  <SCORE.INTRA>
-5.88275

>  <SCORE.INTRA.DIHEDRAL>
-18.2522

>  <SCORE.INTRA.DIHEDRAL.0>
34.5115

>  <SCORE.INTRA.POLAR>
0

>  <SCORE.INTRA.POLAR.0>
0

>  <SCORE.INTRA.REPUL>
0

>  <SCORE.INTRA.REPUL.0>
0

>  <SCORE.INTRA.SOLV>
2.54701

>  <SCORE.INTRA.SOLV.lig_0>
-122.812

>  <SCORE.INTRA.VDW>
1.96984

>  <SCORE.INTRA.VDW.0>
-7.46208

>  <SCORE.INTRA.norm>
-0.120056

>  <SCORE.RESTR>
0.293905

>  <SCORE.RESTR.CAVITY>
0.293905

>  <SCORE.RESTR.norm>
0.00599805

>  <SCORE.SYSTEM>
0

>  <SCORE.SYSTEM.CONST>
0

>  <SCORE.SYSTEM.DIHEDRAL>
0

>  <SCORE.SYSTEM.SOLV>
0

>  <SCORE.SYSTEM.norm>
0

>  <SCORE.heavy>
49

>  <SCORE.norm>
-0.0149667

>  <RMSD>
7.179

$$$$
ligand
 OpenBabel11021811513D
libRbt.so/2013.1/901 2013/11/27
 49 52  0  0  0  0  0  0  0  0999 V2000
   33.0916    9.7361    0.1251 C   0  0  2  0  0  0  0  0  0  0  0  0
   32.1537   10.5939    0.7052 O   0  0  0  0  0  0  0  0  0  0  0  0
   33.4923    8.6141    1.1535 C   0  0  2  0  0  0  0  0  0  0  0  0
   32.2468    7.8414    1.5585 N   0  0  0  0  0  0  0  0  0  0  0  0
   27.0669   12.0115   -2.9991 O   0  0  0  0  0  0  0  0  0  0  0  0
   34.1952    9.2360    2.3827 C   0  0  2  0  0  0  0  0  0  0  0  0
   24.3216   13.7336   -4.4622 N   0  0  0  0  0  0  0  0  0  0  0  0
   35.4382   10.0274    1.9465 C   0  0  2  0  0  0  0  0  0  0  0  0
   35.0733   11.1690    0.9058 C   0  0  2  0  0  0  0  0  0  0  0  0
   34.3347   10.5160   -0.2640 O   0  0  0  0  0  0  0  0  0  0  0  0
   36.3436   11.9295    0.4265 C   0  0  0  0  0  0  0  0  0  0  0  0
   36.0752   12.9602   -0.5113 N   0  0  0  0  0  0  0  0  0  0  0  0
   28.1536   11.9327   -0.2996 C   0  0  2  0  0  0  0  0  0  0  0  0
   26.6922   11.8708   -0.5954 N   0  0  0  0  0  0  0  0  0  0  0  0
   28.8522   10.7543   -1.1359 C   0  0  0  0  0  0  0  0  0  0  0  0
   30.4087   10.7622   -0.9001 C   0  0  2  0  0  0  0  0  0  0  0  0
   31.0582    9.6739   -1.6455 N   0  0  0  0  0  0  0  0  0  0  0  0
   30.7226   10.5758    0.5978 C   0  0  2  0  0  0  0  0  0  0  0  0
   30.0439   11.7209    1.4528 C   0  0  2  0  0  0  0  0  0  0  0  0
   30.4079   11.4585    2.8592 O   0  0  0  0  0  0  0  0  0  0  0  0
   28.4460   11.6493    1.2447 C   0  0  1  0  0  0  0  0  0  0  0  0
   27.8673   12.6585    2.0103 O   0  0  0  0  0  0  0  0  0  0  0  0
   29.7818   10.7020    3.6950 C   0  0  1  0  0  0  0  0  0  0  0  0
   28.4062   11.2373    4.1908 C   0  0  2  0  0  0  0  0  0  0  0  0
   28.6227   11.9798    5.3492 O   0  0  0  0  0  0  0  0  0  0  0  0
   27.7620    9.9464    4.4852 C   0  0  1  0  0  0  0  0  0  0  0  0
   28.1763    8.9321    3.3749 C   0  0  2  0  0  0  0  0  0  0  0  0
   29.5113    9.3450    3.2144 O   0  0  0  0  0  0  0  0  0  0  0  0
   27.3059    8.8372    2.1210 C   0  0  0  0  0  0  0  0  0  0  0  0
   26.0086    8.4869    2.5648 O   0  0  0  0  0  0  0  0  0  0  0  0
   27.5180    8.5839    6.5119 C   0  0  2  0  0  0  0  0  0  0  0  0
   28.2331    9.5388    5.8484 O   0  0  0  0  0  0  0  0  0  0  0  0
   26.0771    8.9693    6.6744 C   0  0  1  0  0  0  0  0  0  0  0  0
   27.4435    5.7434   10.8960 N   0  0  0  0  0  0  0  0  0  0  0  0
   24.1503   10.9342   -1.2285 O   0  0  0  0  0  0  0  0  0  0  0  0
   25.3246    7.8484    7.4913 C   0  0  2  0  0  0  0  0  0  0  0  0
   25.9597    7.5592    8.8955 C   0  0  1  0  0  0  0  0  0  0  0  0
   27.3415    7.1814    8.7126 C   0  0  1  0  0  0  0  0  0  0  0  0
   28.0881    8.2439    7.9285 O   0  0  0  0  0  0  0  0  0  0  0  0
   28.0398    6.9204   10.1187 C   0  0  0  0  0  0  0  0  0  0  0  0
   25.9787   10.1762    7.3956 N   0  0  0  0  0  0  0  0  0  0  0  0
   34.5120    8.3994    3.0940 O   0  0  0  0  0  0  0  0  0  0  0  0
   24.2165   13.0692   -2.0014 C   0  0  0  0  0  0  0  0  0  0  0  0
   25.9171    8.5234    9.5169 O   0  0  0  0  0  0  0  0  0  0  0  0
   25.3844    6.8679    6.8927 O   0  0  0  0  0  0  0  0  0  0  0  0
   26.2886   11.9264   -2.0386 C   0  0  0  0  0  0  0  0  0  0  0  0
   23.7123   13.5285   -3.1975 C   0  0  0  0  0  0  0  0  0  0  0  0
   24.6828   11.8363   -2.1960 C   0  0  1  0  0  0  0  0  0  0  0  0
   36.3679    9.1635    1.3409 F   0  0  0  0  0  0  0  0  0  0  0  0
  1  2  1  1  0  0  0
  1 10  1  0  0  0  0
  1  3  1  0  0  0  0
  3  4  1  1  0  0  0
  3  6  1  0  0  0  0
  5 46  2  0  0  0  0
  6 42  1  1  0  0  0
  6  8  1  0  0  0  0
  7 47  1  0  0  0  0
  8  9  1  0  0  0  0
  8 49  1  6  0  0  0
  9 10  1  0  0  0  0
  9 11  1  6  0  0  0
 11 12  1  0  0  0  0
 13 14  1  1  0  0  0
 13 15  1  0  0  0  0
 13 21  1  0  0  0  0
 14 46  1  0  0  0  0
 15 16  1  0  0  0  0
 16 17  1  6  0  0  0
 16 18  1  0  0  0  0
 18  2  1  6  0  0  0
 18 19  1  0  0  0  0
 19 20  1  1  0  0  0
 19 21  1  0  0  0  0
 21 22  1  1  0  0  0
 23 20  1  6  0  0  0
 23 24  1  0  0  0  0
 23 28  1  0  0  0  0
 24 25  1  1  0  0  0
 24 26  1  0  0  0  0
 26 27  1  0  0  0  0
 26 32  1  1  0  0  0
 27 28  1  0  0  0  0
 27 29  1  6  0  0  0
 29 30  1  0  0  0  0
 31 32  1  1  0  0  0
 31 33  1  0  0  0  0
 31 39  1  0  0  0  0
 33 36  1  0  0  0  0
 33 41  1  1  0  0  0
 34 40  1  0  0  0  0
 35 48  1  0  0  0  0
 36 37  1  0  0  0  0
 36 45  1  6  0  0  0
 37 38  1  0  0  0  0
 37 44  1  1  0  0  0
 38 39  1  0  0  0  0
 38 40  1  1  0  0  0
 43 47  1  0  0  0  0
 46 48  1  0  0  0  0
 48 43  1  1  0  0  0
M  END
>  <CHROM.1>
-96.36676764,-60.68936258,179.77089957,-54.96160145,-87.39470962,-70.80056780
162.23138142,-58.81311512,-56.74663138,63.86272297,-60.18244645,-128.52569711
141.79065402,29.16174595,10.10849434,2.55388090,-1.16431195,-0.08570643,1.96965644

>  <Name>
ligand

>  <RI>
0

>  <Rbt.Current_Directory>
/home/itssahil/PROJECTS/Mol_Feturizer/New_Systems/rnas/4PDQ

>  <Rbt.Executable>
rbdock ($Id: //depot/dev/client3/rdock/2013.1/src/exe/rbdock.cxx#4 $)

>  <Rbt.Library>
libRbt.so (2013.1, Build901 2013/11/27)

>  <Rbt.Parameter_File>
/export/apps/rDock/src/rDock_2013.1_src/data/scripts/dock_solv.prm

>  <Rbt.Receptor>
prm/pocket_docking_3.prm

>  <SCORE>
-0.510665

>  <SCORE.INTER>
3.112

>  <SCORE.INTER.CONST>
1

>  <SCORE.INTER.POLAR>
0

>  <SCORE.INTER.ROT>
13

>  <SCORE.INTER.SOLV>
18.1631

>  <SCORE.INTER.VDW>
-16.2464

>  <SCORE.INTER.norm>
0.0635101

>  <SCORE.INTRA>
-3.62329

>  <SCORE.INTRA.DIHEDRAL>
-18.2284

>  <SCORE.INTRA.DIHEDRAL.0>
34.5115

>  <SCORE.INTRA.POLAR>
0

>  <SCORE.INTRA.POLAR.0>
0

>  <SCORE.INTRA.REPUL>
0.0955685

>  <SCORE.INTRA.REPUL.0>
0

>  <SCORE.INTRA.SOLV>
1.99865

>  <SCORE.INTRA.SOLV.lig_0>
-122.812

>  <SCORE.INTRA.VDW>
4.01377

>  <SCORE.INTRA.VDW.0>
-7.46208

>  <SCORE.INTRA.norm>
-0.0739446

>  <SCORE.RESTR>
0.000628098

>  <SCORE.RESTR.CAVITY>
0.000628098

>  <SCORE.RESTR.norm>
1.28183e-05

>  <SCORE.SYSTEM>
0

>  <SCORE.SYSTEM.CONST>
0

>  <SCORE.SYSTEM.DIHEDRAL>
0

>  <SCORE.SYSTEM.SOLV>
0

>  <SCORE.SYSTEM.norm>
0

>  <SCORE.heavy>
49

>  <SCORE.norm>
-0.0104217

>  <RMSD>
7.180

$$$$
ligand
 OpenBabel11021811513D
libRbt.so/2013.1/901 2013/11/27
 49 52  0  0  0  0  0  0  0  0999 V2000
   27.7655   12.0879    5.2257 C   0  0  2  0  0  0  0  0  0  0  0  0
   28.8930   12.3083    4.4306 O   0  0  0  0  0  0  0  0  0  0  0  0
   27.5496   13.3115    6.1918 C   0  0  2  0  0  0  0  0  0  0  0  0
   27.3756   14.5753    5.3642 N   0  0  0  0  0  0  0  0  0  0  0  0
   30.6751    8.8099    0.2233 O   0  0  0  0  0  0  0  0  0  0  0  0
   28.7379   13.4390    7.1734 C   0  0  2  0  0  0  0  0  0  0  0  0
   30.9407    5.4357   -1.8972 N   0  0  0  0  0  0  0  0  0  0  0  0
   28.9060   12.1440    7.9835 C   0  0  2  0  0  0  0  0  0  0  0  0
   29.1244   10.8852    7.0414 C   0  0  2  0  0  0  0  0  0  0  0  0
   27.9556   10.8310    6.0558 O   0  0  0  0  0  0  0  0  0  0  0  0
   29.2381    9.5703    7.8658 C   0  0  0  0  0  0  0  0  0  0  0  0
   28.0311    9.1900    8.5082 N   0  0  0  0  0  0  0  0  0  0  0  0
   30.4969   11.7069    0.4471 C   0  0  2  0  0  0  0  0  0  0  0  0
   31.1151   11.0130   -0.7205 N   0  0  0  0  0  0  0  0  0  0  0  0
   31.3584   11.3070    1.7410 C   0  0  0  0  0  0  0  0  0  0  0  0
   30.7864   12.0197    3.0228 C   0  0  2  0  0  0  0  0  0  0  0  0
   31.5553   11.6452    4.2189 N   0  0  0  0  0  0  0  0  0  0  0  0
   29.3160   11.6144    3.2477 C   0  0  2  0  0  0  0  0  0  0  0  0
   28.4383   11.9915    1.9866 C   0  0  2  0  0  0  0  0  0  0  0  0
   27.0583   11.5731    2.3026 O   0  0  0  0  0  0  0  0  0  0  0  0
   29.0045   11.1983    0.7014 C   0  0  1  0  0  0  0  0  0  0  0  0
   28.2151   11.5370   -0.3948 O   0  0  0  0  0  0  0  0  0  0  0  0
   26.6132   10.3658    2.3867 C   0  0  1  0  0  0  0  0  0  0  0  0
   25.1048   10.2257    2.7472 C   0  0  2  0  0  0  0  0  0  0  0  0
   24.9974   10.1376    4.1330 O   0  0  0  0  0  0  0  0  0  0  0  0
   24.8440    8.9300    2.0984 C   0  0  1  0  0  0  0  0  0  0  0  0
   25.6279    8.8949    0.7502 C   0  0  2  0  0  0  0  0  0  0  0  0
   26.7924    9.5576    1.1783 O   0  0  0  0  0  0  0  0  0  0  0  0
   24.9310    9.4214   -0.5052 C   0  0  0  0  0  0  0  0  0  0  0  0
   23.7573    8.6464   -0.6615 O   0  0  0  0  0  0  0  0  0  0  0  0
   25.1529    6.5687    2.6920 C   0  0  2  0  0  0  0  0  0  0  0  0
   25.2982    7.8749    3.0611 O   0  0  0  0  0  0  0  0  0  0  0  0
   25.4539    5.6267    3.8203 C   0  0  1  0  0  0  0  0  0  0  0  0
   26.6552    5.4398   -1.3973 N   0  0  0  0  0  0  0  0  0  0  0  0
   32.9617    9.6932   -2.3734 O   0  0  0  0  0  0  0  0  0  0  0  0
   25.3166    4.1395    3.3111 C   0  0  2  0  0  0  0  0  0  0  0  0
   26.2325    3.8078    2.0823 C   0  0  1  0  0  0  0  0  0  0  0  0
   25.9179    4.7197    1.0076 C   0  0  1  0  0  0  0  0  0  0  0  0
   26.0422    6.1584    1.4721 O   0  0  0  0  0  0  0  0  0  0  0  0
   26.8566    4.4475   -0.2485 C   0  0  0  0  0  0  0  0  0  0  0  0
   26.7774    5.8154    4.2667 N   0  0  0  0  0  0  0  0  0  0  0  0
   28.5387   14.3076    7.8892 O   0  0  0  0  0  0  0  0  0  0  0  0
   32.1759    7.6616   -1.7291 C   0  0  0  0  0  0  0  0  0  0  0  0
   27.3261    3.9639    2.3942 O   0  0  0  0  0  0  0  0  0  0  0  0
   24.2307    3.9773    2.9678 O   0  0  0  0  0  0  0  0  0  0  0  0
   31.1350    9.5139   -0.6870 C   0  0  0  0  0  0  0  0  0  0  0  0
   31.1238    6.8340   -2.0520 C   0  0  0  0  0  0  0  0  0  0  0  0
   31.8217    8.9126   -2.0205 C   0  0  1  0  0  0  0  0  0  0  0  0
   27.7582   11.9140    8.7626 F   0  0  0  0  0  0  0  0  0  0  0  0
  1  2  1  1  0  0  0
  1 10  1  0  0  0  0
  1  3  1  0  0  0  0
  3  4  1  6  0  0  0
  3  6  1  0  0  0  0
  5 46  2  0  0  0  0
  6 42  1  1  0  0  0
  6  8  1  0  0  0  0
  7 47  1  0  0  0  0
  8  9  1  0  0  0  0
  8 49  1  6  0  0  0
  9 10  1  0  0  0  0
  9 11  1  1  0  0  0
 11 12  1  0  0  0  0
 13 14  1  6  0  0  0
 13 15  1  0  0  0  0
 13 21  1  0  0  0  0
 14 46  1  0  0  0  0
 15 16  1  0  0  0  0
 16 17  1  1  0  0  0
 16 18  1  0  0  0  0
 18  2  1  1  0  0  0
 18 19  1  0  0  0  0
 19 20  1  1  0  0  0
 19 21  1  0  0  0  0
 21 22  1  6  0  0  0
 23 20  1  6  0  0  0
 23 24  1  0  0  0  0
 23 28  1  0  0  0  0
 24 25  1  1  0  0  0
 24 26  1  0  0  0  0
 26 27  1  0  0  0  0
 26 32  1  1  0  0  0
 27 28  1  0  0  0  0
 27 29  1  6  0  0  0
 29 30  1  0  0  0  0
 31 32  1  1  0  0  0
 31 33  1  0  0  0  0
 31 39  1  0  0  0  0
 33 36  1  0  0  0  0
 33 41  1  6  0  0  0
 34 40  1  0  0  0  0
 35 48  1  0  0  0  0
 36 37  1  0  0  0  0
 36 45  1  6  0  0  0
 37 38  1  0  0  0  0
 37 44  1  1  0  0  0
 38 39  1  0  0  0  0
 38 40  1  6  0  0  0
 43 47  1  0  0  0  0
 46 48  1  0  0  0  0
 48 43  1  1  0  0  0
M  END
>  <CHROM.1>
-166.19947156,-165.09185087,67.85587338,61.51728112,-70.76387536,179.60880243
179.58009402,-58.54759079,-171.47102285,-175.84227582,-176.94364107,-150.26277890
-140.11608233,27.97370024,9.30722160,2.60174940,1.46397697,0.75956251,0.89696606

>  <Name>
ligand

>  <RI>
0

>  <Rbt.Current_Directory>
/home/itssahil/PROJECTS/Mol_Feturizer/New_Systems/rnas/4PDQ

>  <Rbt.Executable>
rbdock ($Id: //depot/dev/client3/rdock/2013.1/src/exe/rbdock.cxx#4 $)

>  <Rbt.Library>
libRbt.so (2013.1, Build901 2013/11/27)

>  <Rbt.Parameter_File>
/export/apps/rDock/src/rDock_2013.1_src/data/scripts/dock_solv.prm

>  <Rbt.Receptor>
prm/pocket_docking_6.prm

>  <SCORE>
-15.1648

>  <SCORE.INTER>
-3.43895

>  <SCORE.INTER.CONST>
1

>  <SCORE.INTER.POLAR>
0

>  <SCORE.INTER.ROT>
13

>  <SCORE.INTER.SOLV>
21.4661

>  <SCORE.INTER.VDW>
-21.7146

>  <SCORE.INTER.norm>
-0.0701826

>  <SCORE.INTRA>
-11.7258

>  <SCORE.INTRA.DIHEDRAL>
-27.5099

>  <SCORE.INTRA.DIHEDRAL.0>
34.5115

>  <SCORE.INTRA.POLAR>
0

>  <SCORE.INTRA.POLAR.0>
0

>  <SCORE.INTRA.REPUL>
0

>  <SCORE.INTRA.REPUL.0>
0

>  <SCORE.INTRA.SOLV>
-0.943398

>  <SCORE.INTRA.SOLV.lig_0>
-122.812

>  <SCORE.INTRA.VDW>
2.5008

>  <SCORE.INTRA.VDW.0>
-7.46208

>  <SCORE.INTRA.norm>
-0.239303

>  <SCORE.RESTR>
0

>  <SCORE.RESTR.CAVITY>
0

>  <SCORE.RESTR.norm>
0

>  <SCORE.SYSTEM>
0

>  <SCORE.SYSTEM.CONST>
0

>  <SCORE.SYSTEM.DIHEDRAL>
0

>  <SCORE.SYSTEM.SOLV>
0

>  <SCORE.SYSTEM.norm>
0

>  <SCORE.heavy>
49

>  <SCORE.norm>
-0.309485

>  <RMSD>
7.193

$$$$
ligand
 OpenBabel11021811513D
libRbt.so/2013.1/901 2013/11/27
 49 52  0  0  0  0  0  0  0  0999 V2000
   32.8550    9.4850    0.6977 C   0  0  2  0  0  0  0  0  0  0  0  0
   31.7680   10.3034    1.0151 O   0  0  0  0  0  0  0  0  0  0  0  0
   33.8047    9.3559    1.9462 C   0  0  2  0  0  0  0  0  0  0  0  0
   33.0212    8.7688    3.1098 N   0  0  0  0  0  0  0  0  0  0  0  0
   26.2222    9.5745   -0.6804 O   0  0  0  0  0  0  0  0  0  0  0  0
   34.4072   10.7332    2.3094 C   0  0  2  0  0  0  0  0  0  0  0  0
   24.2580   13.3655   -3.6324 N   0  0  0  0  0  0  0  0  0  0  0  0
   35.1765   11.3146    1.1128 C   0  0  2  0  0  0  0  0  0  0  0  0
   34.2502   11.4581   -0.1683 C   0  0  2  0  0  0  0  0  0  0  0  0
   33.6361   10.0870   -0.4566 O   0  0  0  0  0  0  0  0  0  0  0  0
   35.0491   11.9950   -1.3910 C   0  0  0  0  0  0  0  0  0  0  0  0
   35.7528   13.1999   -1.1319 N   0  0  0  0  0  0  0  0  0  0  0  0
   28.0743   11.8204   -0.6754 C   0  0  2  0  0  0  0  0  0  0  0  0
   26.7745   11.8334   -1.4085 N   0  0  0  0  0  0  0  0  0  0  0  0
   29.1225   11.0225   -1.5925 C   0  0  0  0  0  0  0  0  0  0  0  0
   30.5364   10.9818   -0.9014 C   0  0  2  0  0  0  0  0  0  0  0  0
   31.5009   10.2356   -1.7229 N   0  0  0  0  0  0  0  0  0  0  0  0
   30.4387   10.2925    0.4742 C   0  0  2  0  0  0  0  0  0  0  0  0
   29.4084   11.0532    1.4031 C   0  0  2  0  0  0  0  0  0  0  0  0
   29.3936   10.3256    2.6875 O   0  0  0  0  0  0  0  0  0  0  0  0
   27.9554   11.0236    0.7035 C   0  0  1  0  0  0  0  0  0  0  0  0
   27.0625   11.6902    1.5390 O   0  0  0  0  0  0  0  0  0  0  0  0
   28.7080   10.6207    3.7390 C   0  0  1  0  0  0  0  0  0  0  0  0
   28.8515    9.6364    4.9370 C   0  0  2  0  0  0  0  0  0  0  0  0
   27.8600    8.6653    4.8206 O   0  0  0  0  0  0  0  0  0  0  0  0
   28.5632   10.5790    6.0308 C   0  0  1  0  0  0  0  0  0  0  0  0
   29.2322   11.9450    5.6842 C   0  0  2  0  0  0  0  0  0  0  0  0
   28.9807   11.9459    4.3003 O   0  0  0  0  0  0  0  0  0  0  0  0
   30.6709   12.1830    6.1454 C   0  0  0  0  0  0  0  0  0  0  0  0
   31.0265   13.4727    5.6842 O   0  0  0  0  0  0  0  0  0  0  0  0
   26.4210    9.7457    6.8911 C   0  0  2  0  0  0  0  0  0  0  0  0
   27.0705   10.6723    6.1274 O   0  0  0  0  0  0  0  0  0  0  0  0
   24.9471   10.0140    6.9716 C   0  0  1  0  0  0  0  0  0  0  0  0
   26.9373    9.9545   11.4037 N   0  0  0  0  0  0  0  0  0  0  0  0
   23.7608    9.5929   -2.0210 O   0  0  0  0  0  0  0  0  0  0  0  0
   24.2700    8.9390    7.9076 C   0  0  2  0  0  0  0  0  0  0  0  0
   24.8810    8.8868    9.3508 C   0  0  1  0  0  0  0  0  0  0  0  0
   26.2961    8.6180    9.2477 C   0  0  1  0  0  0  0  0  0  0  0  0
   26.9714    9.6388    8.3515 O   0  0  0  0  0  0  0  0  0  0  0  0
   26.9675    8.5996   10.6906 C   0  0  0  0  0  0  0  0  0  0  0  0
   24.7180   11.2871    7.5312 N   0  0  0  0  0  0  0  0  0  0  0  0
   35.1231   10.6061    3.1913 O   0  0  0  0  0  0  0  0  0  0  0  0
   23.9311   11.8234   -1.6265 C   0  0  0  0  0  0  0  0  0  0  0  0
   24.7324    9.9128    9.8435 O   0  0  0  0  0  0  0  0  0  0  0  0
   24.4364    7.9013    7.4399 O   0  0  0  0  0  0  0  0  0  0  0  0
   25.9312   10.5967   -1.3177 C   0  0  0  0  0  0  0  0  0  0  0  0
   24.3753   12.9507   -2.2808 C   0  0  0  0  0  0  0  0  0  0  0  0
   24.5564   10.7694   -2.1493 C   0  0  1  0  0  0  0  0  0  0  0  0
   36.2542   10.4741    0.7820 F   0  0  0  0  0  0  0  0  0  0  0  0
  1  2  1  1  0  0  0
  1 10  1  0  0  0  0
  1  3  1  0  0  0  0
  3  4  1  1  0  0  0
  3  6  1  0  0  0  0
  5 46  2  0  0  0  0
  6 42  1  1  0  0  0
  6  8  1  0  0  0  0
  7 47  1  0  0  0  0
  8  9  1  0  0  0  0
  8 49  1  6  0  0  0
  9 10  1  0  0  0  0
  9 11  1  6  0  0  0
 11 12  1  0  0  0  0
 13 14  1  6  0  0  0
 13 15  1  0  0  0  0
 13 21  1  0  0  0  0
 14 46  1  0  0  0  0
 15 16  1  0  0  0  0
 16 17  1  6  0  0  0
 16 18  1  0  0  0  0
 18  2  1  1  0  0  0
 18 19  1  0  0  0  0
 19 20  1  1  0  0  0
 19 21  1  0  0  0  0
 21 22  1  1  0  0  0
 23 20  1  6  0  0  0
 23 24  1  0  0  0  0
 23 28  1  0  0  0  0
 24 25  1  6  0  0  0
 24 26  1  0  0  0  0
 26 27  1  0  0  0  0
 26 32  1  6  0  0  0
 27 28  1  0  0  0  0
 27 29  1  6  0  0  0
 29 30  1  0  0  0  0
 31 32  1  1  0  0  0
 31 33  1  0  0  0  0
 31 39  1  0  0  0  0
 33 36  1  0  0  0  0
 33 41  1  1  0  0  0
 34 40  1  0  0  0  0
 35 48  1  0  0  0  0
 36 37  1  0  0  0  0
 36 45  1  6  0  0  0
 37 38  1  0  0  0  0
 37 44  1  6  0  0  0
 38 39  1  0  0  0  0
 38 40  1  1  0  0  0
 43 47  1  0  0  0  0
 46 48  1  0  0  0  0
 48 43  1  1  0  0  0
M  END
>  <CHROM.1>
-151.89582258,-77.38617331,-53.39551720,80.50812518,178.67908300,177.73363475
86.07082167,179.08966187,176.16302297,-65.24239160,64.11685668,-152.45433417
0.42125560,28.95121375,10.60554925,2.89434651,-0.95071727,0.01690731,1.72602056

>  <Name>
ligand

>  <RI>
0

>  <Rbt.Current_Directory>
/home/itssahil/PROJECTS/Mol_Feturizer/New_Systems/rnas/4PDQ

>  <Rbt.Executable>
rbdock ($Id: //depot/dev/client3/rdock/2013.1/src/exe/rbdock.cxx#4 $)

>  <Rbt.Library>
libRbt.so (2013.1, Build901 2013/11/27)

>  <Rbt.Parameter_File>
/export/apps/rDock/src/rDock_2013.1_src/data/scripts/dock_solv.prm

>  <Rbt.Receptor>
prm/pocket_docking_3.prm

>  <SCORE>
-8.3337

>  <SCORE.INTER>
-3.0107

>  <SCORE.INTER.CONST>
1

>  <SCORE.INTER.POLAR>
0

>  <SCORE.INTER.ROT>
13

>  <SCORE.INTER.SOLV>
22.4932

>  <SCORE.INTER.VDW>
-21.7715

>  <SCORE.INTER.norm>
-0.0614428

>  <SCORE.INTRA>
-5.33026

>  <SCORE.INTRA.DIHEDRAL>
-23.1422

>  <SCORE.INTRA.DIHEDRAL.0>
34.5115

>  <SCORE.INTRA.POLAR>
0

>  <SCORE.INTRA.POLAR.0>
0

>  <SCORE.INTRA.REPUL>
0

>  <SCORE.INTRA.REPUL.0>
0

>  <SCORE.INTRA.SOLV>
2.01733

>  <SCORE.INTRA.SOLV.lig_0>
-122.812

>  <SCORE.INTRA.VDW>
5.23216

>  <SCORE.INTRA.VDW.0>
-7.46208

>  <SCORE.INTRA.norm>
-0.108781

>  <SCORE.RESTR>
0.0072566

>  <SCORE.RESTR.CAVITY>
0.0072566

>  <SCORE.RESTR.norm>
0.000148094

>  <SCORE.SYSTEM>
0

>  <SCORE.SYSTEM.CONST>
0

>  <SCORE.SYSTEM.DIHEDRAL>
0

>  <SCORE.SYSTEM.SOLV>
0

>  <SCORE.SYSTEM.norm>
0

>  <SCORE.heavy>
49

>  <SCORE.norm>
-0.170076

>  <RMSD>
7.198

$$$$
ligand
 OpenBabel11021811513D
libRbt.so/2013.1/901 2013/11/27
 49 52  0  0  0  0  0  0  0  0999 V2000
   29.7771   11.3410    3.0869 C   0  0  2  0  0  0  0  0  0  0  0  0
   29.5221    9.9953    3.3627 O   0  0  0  0  0  0  0  0  0  0  0  0
   28.9341   11.7960    1.8381 C   0  0  2  0  0  0  0  0  0  0  0  0
   27.4567   11.5857    2.1306 N   0  0  0  0  0  0  0  0  0  0  0  0
   27.6294    6.5361    8.9573 O   0  0  0  0  0  0  0  0  0  0  0  0
   29.3761   11.0174    0.5771 C   0  0  2  0  0  0  0  0  0  0  0  0
   29.7371    3.4574   12.5007 N   0  0  0  0  0  0  0  0  0  0  0  0
   30.8752   11.2293    0.3137 C   0  0  2  0  0  0  0  0  0  0  0  0
   31.7592   10.7826    1.5542 C   0  0  2  0  0  0  0  0  0  0  0  0
   31.2520   11.5366    2.7848 O   0  0  0  0  0  0  0  0  0  0  0  0
   33.2710   11.0516    1.3020 C   0  0  0  0  0  0  0  0  0  0  0  0
   34.1150   10.6123    2.3549 N   0  0  0  0  0  0  0  0  0  0  0  0
   29.2289    7.1214    6.5965 C   0  0  2  0  0  0  0  0  0  0  0  0
   29.6564    6.1629    7.6574 N   0  0  0  0  0  0  0  0  0  0  0  0
   30.0938    6.7877    5.2861 C   0  0  0  0  0  0  0  0  0  0  0  0
   29.6870    7.7423    4.1023 C   0  0  2  0  0  0  0  0  0  0  0  0
   30.4870    7.4599    2.9015 N   0  0  0  0  0  0  0  0  0  0  0  0
   29.9165    9.2141    4.5002 C   0  0  2  0  0  0  0  0  0  0  0  0
   29.0798    9.5753    5.7934 C   0  0  2  0  0  0  0  0  0  0  0  0
   29.3604   10.9951    6.0848 O   0  0  0  0  0  0  0  0  0  0  0  0
   29.5614    8.6285    7.0071 C   0  0  1  0  0  0  0  0  0  0  0  0
   28.8199    8.9668    8.1364 O   0  0  0  0  0  0  0  0  0  0  0  0
   28.9053   11.6897    7.0712 C   0  0  1  0  0  0  0  0  0  0  0  0
   29.5400   13.0999    7.2538 C   0  0  2  0  0  0  0  0  0  0  0  0
   30.6267   12.9771    8.1162 O   0  0  0  0  0  0  0  0  0  0  0  0
   28.4020   13.7696    7.9054 C   0  0  1  0  0  0  0  0  0  0  0  0
   27.0897   13.2684    7.2271 C   0  0  2  0  0  0  0  0  0  0  0  0
   27.4595   11.9236    7.0447 O   0  0  0  0  0  0  0  0  0  0  0  0
   26.5671   14.0333    6.0103 C   0  0  0  0  0  0  0  0  0  0  0  0
   25.3485   13.4129    5.6457 O   0  0  0  0  0  0  0  0  0  0  0  0
   27.4002   13.7095   10.1450 C   0  0  2  0  0  0  0  0  0  0  0  0
   28.4763   13.4130    9.3592 O   0  0  0  0  0  0  0  0  0  0  0  0
   27.2561   15.1858   10.3708 C   0  0  1  0  0  0  0  0  0  0  0  0
   26.7301   11.0152   13.6590 N   0  0  0  0  0  0  0  0  0  0  0  0
   30.4344    5.4602   10.5546 O   0  0  0  0  0  0  0  0  0  0  0  0
   26.0279   15.4517   11.3252 C   0  0  2  0  0  0  0  0  0  0  0  0
   26.1293   14.7101   12.7031 C   0  0  1  0  0  0  0  0  0  0  0  0
   26.2572   13.2923   12.4603 C   0  0  1  0  0  0  0  0  0  0  0  0
   27.4323   13.0095   11.5437 O   0  0  0  0  0  0  0  0  0  0  0  0
   26.4077   12.5020   13.8336 C   0  0  0  0  0  0  0  0  0  0  0  0
   28.4129   15.6938   10.9953 N   0  0  0  0  0  0  0  0  0  0  0  0
   28.7791   11.3938   -0.3219 O   0  0  0  0  0  0  0  0  0  0  0  0
   28.3301    4.6206   10.7186 C   0  0  0  0  0  0  0  0  0  0  0  0
   27.0711   15.0809   13.2446 O   0  0  0  0  0  0  0  0  0  0  0  0
   25.0795   15.0582   10.8066 O   0  0  0  0  0  0  0  0  0  0  0  0
   28.7233    5.9714    8.8156 C   0  0  0  0  0  0  0  0  0  0  0  0
   28.7305    3.5648   11.5067 C   0  0  0  0  0  0  0  0  0  0  0  0
   29.3175    4.8989    9.8684 C   0  0  1  0  0  0  0  0  0  0  0  0
   31.1297   12.5890    0.0615 F   0  0  0  0  0  0  0  0  0  0  0  0
  1  2  1  6  0  0  0
  1 10  1  0  0  0  0
  1  3  1  0  0  0  0
  3  4  1  1  0  0  0
  3  6  1  0  0  0  0
  5 46  2  0  0  0  0
  6 42  1  6  0  0  0
  6  8  1  0  0  0  0
  7 47  1  0  0  0  0
  8  9  1  0  0  0  0
  8 49  1  1  0  0  0
  9 10  1  0  0  0  0
  9 11  1  6  0  0  0
 11 12  1  0  0  0  0
 13 14  1  1  0  0  0
 13 15  1  0  0  0  0
 13 21  1  0  0  0  0
 14 46  1  0  0  0  0
 15 16  1  0  0  0  0
 16 17  1  6  0  0  0
 16 18  1  0  0  0  0
 18  2  1  6  0  0  0
 18 19  1  0  0  0  0
 19 20  1  1  0  0  0
 19 21  1  0  0  0  0
 21 22  1  1  0  0  0
 23 20  1  6  0  0  0
 23 24  1  0  0  0  0
 23 28  1  0  0  0  0
 24 25  1  1  0  0  0
 24 26  1  0  0  0  0
 26 27  1  0  0  0  0
 26 32  1  1  0  0  0
 27 28  1  0  0  0  0
 27 29  1  6  0  0  0
 29 30  1  0  0  0  0
 31 32  1  1  0  0  0
 31 33  1  0  0  0  0
 31 39  1  0  0  0  0
 33 36  1  0  0  0  0
 33 41  1  1  0  0  0
 34 40  1  0  0  0  0
 35 48  1  0  0  0  0
 36 37  1  0  0  0  0
 36 45  1  6  0  0  0
 37 38  1  0  0  0  0
 37 44  1  6  0  0  0
 38 39  1  0  0  0  0
 38 40  1  1  0  0  0
 43 47  1  0  0  0  0
 46 48  1  0  0  0  0
 48 43  1  1  0  0  0
M  END
>  <CHROM.1>
-170.54588290,-165.55599422,-177.17830426,-161.13946851,-178.44514270,170.91568857
-168.40900109,-177.12666414,-70.84421776,-172.49573262,67.72695092,-69.47806424
-110.07759540,28.81135274,10.73782797,7.05338347,0.50196289,1.19722278,-0.68610819

>  <Name>
ligand

>  <RI>
0

>  <Rbt.Current_Directory>
/home/itssahil/PROJECTS/Mol_Feturizer/New_Systems/rnas/4PDQ

>  <Rbt.Executable>
rbdock ($Id: //depot/dev/client3/rdock/2013.1/src/exe/rbdock.cxx#4 $)

>  <Rbt.Library>
libRbt.so (2013.1, Build901 2013/11/27)

>  <Rbt.Parameter_File>
/export/apps/rDock/src/rDock_2013.1_src/data/scripts/dock_solv.prm

>  <Rbt.Receptor>
prm/pocket_docking_8.prm

>  <SCORE>
-14.8048

>  <SCORE.INTER>
-2.07541

>  <SCORE.INTER.CONST>
1

>  <SCORE.INTER.POLAR>
0

>  <SCORE.INTER.ROT>
13

>  <SCORE.INTER.SOLV>
24.9916

>  <SCORE.INTER.VDW>
-21.9808

>  <SCORE.INTER.norm>
-0.0423553

>  <SCORE.INTRA>
-12.7294

>  <SCORE.INTRA.DIHEDRAL>
-29.4188

>  <SCORE.INTRA.DIHEDRAL.0>
34.5115

>  <SCORE.INTRA.POLAR>
0

>  <SCORE.INTRA.POLAR.0>
0

>  <SCORE.INTRA.REPUL>
0

>  <SCORE.INTRA.REPUL.0>
0

>  <SCORE.INTRA.SOLV>
-3.28093

>  <SCORE.INTRA.SOLV.lig_0>
-122.812

>  <SCORE.INTRA.VDW>
3.62043

>  <SCORE.INTRA.VDW.0>
-7.46208

>  <SCORE.INTRA.norm>
-0.259784

>  <SCORE.RESTR>
0

>  <SCORE.RESTR.CAVITY>
0

>  <SCORE.RESTR.norm>
0

>  <SCORE.SYSTEM>
0

>  <SCORE.SYSTEM.CONST>
0

>  <SCORE.SYSTEM.DIHEDRAL>
0

>  <SCORE.SYSTEM.SOLV>
0

>  <SCORE.SYSTEM.norm>
0

>  <SCORE.heavy>
49

>  <SCORE.norm>
-0.302139

>  <RMSD>
7.225

$$$$
ligand
 OpenBabel11021811513D
libRbt.so/2013.1/901 2013/11/27
 49 52  0  0  0  0  0  0  0  0999 V2000
   30.8891   11.4171    2.5998 C   0  0  2  0  0  0  0  0  0  0  0  0
   30.2818   10.2344    2.1705 O   0  0  0  0  0  0  0  0  0  0  0  0
   32.2496   11.0850    3.3181 C   0  0  2  0  0  0  0  0  0  0  0  0
   33.1574   10.3448    2.3485 N   0  0  0  0  0  0  0  0  0  0  0  0
   25.5077    8.7765   -0.7287 O   0  0  0  0  0  0  0  0  0  0  0  0
   31.9944   10.2549    4.5979 C   0  0  2  0  0  0  0  0  0  0  0  0
   21.6109   10.1721   -4.0368 N   0  0  0  0  0  0  0  0  0  0  0  0
   31.0595   11.0142    5.5523 C   0  0  2  0  0  0  0  0  0  0  0  0
   29.6753   11.3690    4.8612 C   0  0  2  0  0  0  0  0  0  0  0  0
   29.9792   12.1410    3.5760 O   0  0  0  0  0  0  0  0  0  0  0  0
   28.7559   12.1858    5.8147 C   0  0  0  0  0  0  0  0  0  0  0  0
   29.2704   13.4650    6.1507 N   0  0  0  0  0  0  0  0  0  0  0  0
   26.3107   11.1783    0.7070 C   0  0  2  0  0  0  0  0  0  0  0  0
   25.0657   11.0920   -0.1114 N   0  0  0  0  0  0  0  0  0  0  0  0
   27.5487   11.0698   -0.3089 C   0  0  0  0  0  0  0  0  0  0  0  0
   28.9109   11.1771    0.4728 C   0  0  2  0  0  0  0  0  0  0  0  0
   30.0536   11.0587   -0.4449 N   0  0  0  0  0  0  0  0  0  0  0  0
   29.0151   10.0514    1.5212 C   0  0  2  0  0  0  0  0  0  0  0  0
   27.8050   10.1272    2.5375 C   0  0  2  0  0  0  0  0  0  0  0  0
   27.9999    9.0217    3.4963 O   0  0  0  0  0  0  0  0  0  0  0  0
   26.4259    9.9493    1.7203 C   0  0  1  0  0  0  0  0  0  0  0  0
   25.3750   10.0109    2.6321 O   0  0  0  0  0  0  0  0  0  0  0  0
   27.7343    9.0327    4.7581 C   0  0  1  0  0  0  0  0  0  0  0  0
   26.6697    8.0004    5.2331 C   0  0  2  0  0  0  0  0  0  0  0  0
   25.4196    8.6121    5.1795 O   0  0  0  0  0  0  0  0  0  0  0  0
   27.1327    7.8310    6.6206 C   0  0  1  0  0  0  0  0  0  0  0  0
   28.6926    7.8315    6.6159 C   0  0  2  0  0  0  0  0  0  0  0  0
   28.8897    8.8176    5.6326 O   0  0  0  0  0  0  0  0  0  0  0  0
   29.4155    6.4955    6.4379 C   0  0  0  0  0  0  0  0  0  0  0  0
   29.0153    5.6807    7.5235 O   0  0  0  0  0  0  0  0  0  0  0  0
   26.9226    9.0999    8.7108 C   0  0  2  0  0  0  0  0  0  0  0  0
   26.5546    8.9714    7.4026 O   0  0  0  0  0  0  0  0  0  0  0  0
   26.6038    7.8707    9.5099 C   0  0  1  0  0  0  0  0  0  0  0  0
   26.4182   12.2049   12.8797 N   0  0  0  0  0  0  0  0  0  0  0  0
   23.0070   11.2024   -1.8057 O   0  0  0  0  0  0  0  0  0  0  0  0
   27.0071    8.1073   11.0171 C   0  0  2  0  0  0  0  0  0  0  0  0
   26.3161    9.3570   11.6648 C   0  0  1  0  0  0  0  0  0  0  0  0
   26.6452   10.5271   10.8850 C   0  0  1  0  0  0  0  0  0  0  0  0
   26.2672   10.3249    9.4299 O   0  0  0  0  0  0  0  0  0  0  0  0
   25.9276   11.8161   11.4822 C   0  0  0  0  0  0  0  0  0  0  0  0
   25.2195    7.6104    9.4636 N   0  0  0  0  0  0  0  0  0  0  0  0
   32.9916   10.0619    5.1220 O   0  0  0  0  0  0  0  0  0  0  0  0
   23.6508    9.2651   -2.8020 C   0  0  0  0  0  0  0  0  0  0  0  0
   25.1798    9.1978   11.6348 O   0  0  0  0  0  0  0  0  0  0  0  0
   28.1408    8.2971   11.0589 O   0  0  0  0  0  0  0  0  0  0  0  0
   24.7916    9.7858   -0.7950 C   0  0  0  0  0  0  0  0  0  0  0  0
   22.4605    9.1769   -3.4887 C   0  0  0  0  0  0  0  0  0  0  0  0
   23.4078    9.8455   -1.6275 C   0  0  1  0  0  0  0  0  0  0  0  0
   31.6654   12.2155    5.9613 F   0  0  0  0  0  0  0  0  0  0  0  0
  1  2  1  1  0  0  0
  1 10  1  0  0  0  0
  1  3  1  0  0  0  0
  3  4  1  6  0  0  0
  3  6  1  0  0  0  0
  5 46  2  0  0  0  0
  6 42  1  1  0  0  0
  6  8  1  0  0  0  0
  7 47  1  0  0  0  0
  8  9  1  0  0  0  0
  8 49  1  6  0  0  0
  9 10  1  0  0  0  0
  9 11  1  1  0  0  0
 11 12  1  0  0  0  0
 13 14  1  6  0  0  0
 13 15  1  0  0  0  0
 13 21  1  0  0  0  0
 14 46  1  0  0  0  0
 15 16  1  0  0  0  0
 16 17  1  6  0  0  0
 16 18  1  0  0  0  0
 18  2  1  1  0  0  0
 18 19  1  0  0  0  0
 19 20  1  1  0  0  0
 19 21  1  0  0  0  0
 21 22  1  1  0  0  0
 23 20  1  6  0  0  0
 23 24  1  0  0  0  0
 23 28  1  0  0  0  0
 24 25  1  1  0  0  0
 24 26  1  0  0  0  0
 26 27  1  0  0  0  0
 26 32  1  1  0  0  0
 27 28  1  0  0  0  0
 27 29  1  6  0  0  0
 29 30  1  0  0  0  0
 31 32  1  6  0  0  0
 31 33  1  0  0  0  0
 31 39  1  0  0  0  0
 33 36  1  0  0  0  0
 33 41  1  1  0  0  0
 34 40  1  0  0  0  0
 35 48  1  0  0  0  0
 36 37  1  0  0  0  0
 36 45  1  6  0  0  0
 37 38  1  0  0  0  0
 37 44  1  6  0  0  0
 38 39  1  0  0  0  0
 38 40  1  1  0  0  0
 43 47  1  0  0  0  0
 46 48  1  0  0  0  0
 48 43  1  6  0  0  0
M  END
>  <CHROM.1>
177.31716764,42.22099379,64.57208763,66.58491353,143.70055913,118.49348148
-175.10341714,-60.41935850,-57.55168107,65.47420790,66.73324582,-66.49104603
-164.70146513,27.59203162,9.88693070,4.56914164,-1.75946622,0.21547232,1.68020026

>  <Name>
ligand

>  <RI>
0

>  <Rbt.Current_Directory>
/home/itssahil/PROJECTS/Mol_Feturizer/New_Systems/rnas/4PDQ

>  <Rbt.Executable>
rbdock ($Id: //depot/dev/client3/rdock/2013.1/src/exe/rbdock.cxx#4 $)

>  <Rbt.Library>
libRbt.so (2013.1, Build901 2013/11/27)

>  <Rbt.Parameter_File>
/export/apps/rDock/src/rDock_2013.1_src/data/scripts/dock_solv.prm

>  <Rbt.Receptor>
prm/pocket_docking_4.prm

>  <SCORE>
-9.27229

>  <SCORE.INTER>
-3.47167

>  <SCORE.INTER.CONST>
1

>  <SCORE.INTER.POLAR>
0

>  <SCORE.INTER.ROT>
13

>  <SCORE.INTER.SOLV>
20.5457

>  <SCORE.INTER.VDW>
-21.4297

>  <SCORE.INTER.norm>
-0.0708503

>  <SCORE.INTRA>
-5.80063

>  <SCORE.INTRA.DIHEDRAL>
-18.1645

>  <SCORE.INTRA.DIHEDRAL.0>
34.5115

>  <SCORE.INTRA.POLAR>
0

>  <SCORE.INTRA.POLAR.0>
0

>  <SCORE.INTRA.REPUL>
0

>  <SCORE.INTRA.REPUL.0>
0

>  <SCORE.INTRA.SOLV>
0.877769

>  <SCORE.INTRA.SOLV.lig_0>
-122.812

>  <SCORE.INTRA.VDW>
2.84272

>  <SCORE.INTRA.VDW.0>
-7.46208

>  <SCORE.INTRA.norm>
-0.11838

>  <SCORE.RESTR>
0

>  <SCORE.RESTR.CAVITY>
0

>  <SCORE.RESTR.norm>
0

>  <SCORE.SYSTEM>
0

>  <SCORE.SYSTEM.CONST>
0

>  <SCORE.SYSTEM.DIHEDRAL>
0

>  <SCORE.SYSTEM.SOLV>
0

>  <SCORE.SYSTEM.norm>
0

>  <SCORE.heavy>
49

>  <SCORE.norm>
-0.18923

>  <RMSD>
7.232

$$$$
ligand
 OpenBabel11021811513D
libRbt.so/2013.1/901 2013/11/27
 49 52  0  0  0  0  0  0  0  0999 V2000
   32.3426    9.9557    2.3014 C   0  0  2  0  0  0  0  0  0  0  0  0
   31.4999   10.7128    1.4837 O   0  0  0  0  0  0  0  0  0  0  0  0
   33.6530   10.7702    2.6122 C   0  0  2  0  0  0  0  0  0  0  0  0
   33.2783   12.0738    3.2997 N   0  0  0  0  0  0  0  0  0  0  0  0
   26.3432   12.8469   -2.1443 O   0  0  0  0  0  0  0  0  0  0  0  0
   34.4490   11.0269    1.3113 C   0  0  2  0  0  0  0  0  0  0  0  0
   21.8568    9.7587   -3.1211 N   0  0  0  0  0  0  0  0  0  0  0  0
   34.7985    9.6971    0.6250 C   0  0  2  0  0  0  0  0  0  0  0  0
   33.4998    8.8454    0.2970 C   0  0  2  0  0  0  0  0  0  0  0  0
   32.7194    8.6631    1.6001 O   0  0  0  0  0  0  0  0  0  0  0  0
   33.8645    7.4765   -0.3469 C   0  0  0  0  0  0  0  0  0  0  0  0
   34.6454    7.5877   -1.5267 N   0  0  0  0  0  0  0  0  0  0  0  0
   27.4772   11.8718    0.3533 C   0  0  2  0  0  0  0  0  0  0  0  0
   26.0315   11.7440    0.0062 N   0  0  0  0  0  0  0  0  0  0  0  0
   28.2597   10.7373   -0.4696 C   0  0  0  0  0  0  0  0  0  0  0  0
   29.8049   10.8164   -0.1796 C   0  0  2  0  0  0  0  0  0  0  0  0
   30.5309    9.7686   -0.9125 N   0  0  0  0  0  0  0  0  0  0  0  0
   30.0759   10.6281    1.3264 C   0  0  2  0  0  0  0  0  0  0  0  0
   29.3142   11.7300    2.1683 C   0  0  2  0  0  0  0  0  0  0  0  0
   29.6419   11.4692    3.5839 O   0  0  0  0  0  0  0  0  0  0  0  0
   27.7297   11.5851    1.9040 C   0  0  1  0  0  0  0  0  0  0  0  0
   27.0775   12.5569    2.6587 O   0  0  0  0  0  0  0  0  0  0  0  0
   28.9448   10.7899    4.4297 C   0  0  1  0  0  0  0  0  0  0  0  0
   27.6444   11.4778    4.9399 C   0  0  2  0  0  0  0  0  0  0  0  0
   27.9572   12.1936    6.0931 O   0  0  0  0  0  0  0  0  0  0  0  0
   26.8625   10.2683    5.2465 C   0  0  1  0  0  0  0  0  0  0  0  0
   27.1464    9.2114    4.1348 C   0  0  2  0  0  0  0  0  0  0  0  0
   28.5174    9.4709    3.9571 O   0  0  0  0  0  0  0  0  0  0  0  0
   26.2556    9.2125    2.8917 C   0  0  0  0  0  0  0  0  0  0  0  0
   24.9245    9.0967    3.3579 O   0  0  0  0  0  0  0  0  0  0  0  0
   26.4414    9.0363    7.3269 C   0  0  2  0  0  0  0  0  0  0  0  0
   27.3013    9.8131    6.6053 O   0  0  0  0  0  0  0  0  0  0  0  0
   25.0442    9.5831    7.3178 C   0  0  1  0  0  0  0  0  0  0  0  0
   28.0539    7.9503   11.2402 N   0  0  0  0  0  0  0  0  0  0  0  0
   23.5352   12.9956   -2.5297 O   0  0  0  0  0  0  0  0  0  0  0  0
   24.1184    8.6678    8.2096 C   0  0  2  0  0  0  0  0  0  0  0  0
   24.6202    8.5146    9.6872 C   0  0  1  0  0  0  0  0  0  0  0  0
   25.9610    7.9784    9.6702 C   0  0  1  0  0  0  0  0  0  0  0  0
   26.8723    8.8413    8.8180 O   0  0  0  0  0  0  0  0  0  0  0  0
   26.5286    7.8468   11.1513 C   0  0  0  0  0  0  0  0  0  0  0  0
   25.0307   10.8823    7.8640 N   0  0  0  0  0  0  0  0  0  0  0  0
   35.4139   11.5829    1.5682 O   0  0  0  0  0  0  0  0  0  0  0  0
   23.8744   10.8191   -1.9751 C   0  0  0  0  0  0  0  0  0  0  0  0
   24.6421    9.5552   10.1712 O   0  0  0  0  0  0  0  0  0  0  0  0
   24.1102    7.6126    7.7517 O   0  0  0  0  0  0  0  0  0  0  0  0
   25.5992   12.3001   -1.3177 C   0  0  0  0  0  0  0  0  0  0  0  0
   22.5340   10.5912   -2.1932 C   0  0  0  0  0  0  0  0  0  0  0  0
   24.0164   12.0749   -1.5530 C   0  0  1  0  0  0  0  0  0  0  0  0
   35.6261    8.9287    1.4628 F   0  0  0  0  0  0  0  0  0  0  0  0
  1  2  1  6  0  0  0
  1 10  1  0  0  0  0
  1  3  1  0  0  0  0
  3  4  1  6  0  0  0
  3  6  1  0  0  0  0
  5 46  2  0  0  0  0
  6 42  1  1  0  0  0
  6  8  1  0  0  0  0
  7 47  1  0  0  0  0
  8  9  1  0  0  0  0
  8 49  1  1  0  0  0
  9 10  1  0  0  0  0
  9 11  1  1  0  0  0
 11 12  1  0  0  0  0
 13 14  1  1  0  0  0
 13 15  1  0  0  0  0
 13 21  1  0  0  0  0
 14 46  1  0  0  0  0
 15 16  1  0  0  0  0
 16 17  1  6  0  0  0
 16 18  1  0  0  0  0
 18  2  1  6  0  0  0
 18 19  1  0  0  0  0
 19 20  1  1  0  0  0
 19 21  1  0  0  0  0
 21 22  1  1  0  0  0
 23 20  1  6  0  0  0
 23 24  1  0  0  0  0
 23 28  1  0  0  0  0
 24 25  1  1  0  0  0
 24 26  1  0  0  0  0
 26 27  1  0  0  0  0
 26 32  1  1  0  0  0
 27 28  1  0  0  0  0
 27 29  1  6  0  0  0
 29 30  1  0  0  0  0
 31 32  1  1  0  0  0
 31 33  1  0  0  0  0
 31 39  1  0  0  0  0
 33 36  1  0  0  0  0
 33 41  1  1  0  0  0
 34 40  1  0  0  0  0
 35 48  1  0  0  0  0
 36 37  1  0  0  0  0
 36 45  1  6  0  0  0
 37 38  1  0  0  0  0
 37 44  1  6  0  0  0
 38 39  1  0  0  0  0
 38 40  1  1  0  0  0
 43 47  1  0  0  0  0
 46 48  1  0  0  0  0
 48 43  1  6  0  0  0
M  END
>  <CHROM.1>
-155.64003739,-139.91122554,-56.63388074,-77.64499145,-95.50824410,-73.01159980
156.86915555,-55.19617996,-46.41541102,-152.12869607,148.46903170,-60.29672342
-21.92081810,28.32790562,10.19352308,3.09873774,-0.94155916,-0.09650304,1.78548939

>  <Name>
ligand

>  <RI>
0

>  <Rbt.Current_Directory>
/home/itssahil/PROJECTS/Mol_Feturizer/New_Systems/rnas/4PDQ

>  <Rbt.Executable>
rbdock ($Id: //depot/dev/client3/rdock/2013.1/src/exe/rbdock.cxx#4 $)

>  <Rbt.Library>
libRbt.so (2013.1, Build901 2013/11/27)

>  <Rbt.Parameter_File>
/export/apps/rDock/src/rDock_2013.1_src/data/scripts/dock_solv.prm

>  <Rbt.Receptor>
prm/pocket_docking_2.prm

>  <SCORE>
7.82936

>  <SCORE.INTER>
3.72707

>  <SCORE.INTER.CONST>
1

>  <SCORE.INTER.POLAR>
0

>  <SCORE.INTER.ROT>
13

>  <SCORE.INTER.SOLV>
23.6915

>  <SCORE.INTER.VDW>
-17.6791

>  <SCORE.INTER.norm>
0.0760627

>  <SCORE.INTRA>
-0.0831589

>  <SCORE.INTRA.DIHEDRAL>
-10.9242

>  <SCORE.INTRA.DIHEDRAL.0>
34.5115

>  <SCORE.INTRA.POLAR>
0

>  <SCORE.INTRA.POLAR.0>
0

>  <SCORE.INTRA.REPUL>
0

>  <SCORE.INTRA.REPUL.0>
0

>  <SCORE.INTRA.SOLV>
0.495203

>  <SCORE.INTRA.SOLV.lig_0>
-122.812

>  <SCORE.INTRA.VDW>
5.13135

>  <SCORE.INTRA.VDW.0>
-7.46208

>  <SCORE.INTRA.norm>
-0.00169712

>  <SCORE.RESTR>
4.18545

>  <SCORE.RESTR.CAVITY>
4.18545

>  <SCORE.RESTR.norm>
0.0854173

>  <SCORE.SYSTEM>
0

>  <SCORE.SYSTEM.CONST>
0

>  <SCORE.SYSTEM.DIHEDRAL>
0

>  <SCORE.SYSTEM.SOLV>
0

>  <SCORE.SYSTEM.norm>
0

>  <SCORE.heavy>
49

>  <SCORE.norm>
0.159783

>  <RMSD>
7.243

$$$$
ligand
 OpenBabel11021811513D
libRbt.so/2013.1/901 2013/11/27
 49 52  0  0  0  0  0  0  0  0999 V2000
   25.3618   13.2421    5.5741 C   0  0  2  0  0  0  0  0  0  0  0  0
   26.3264   12.2784    5.8791 O   0  0  0  0  0  0  0  0  0  0  0  0
   25.9472   14.6798    5.8336 C   0  0  2  0  0  0  0  0  0  0  0  0
   27.1845   14.8772    4.9719 N   0  0  0  0  0  0  0  0  0  0  0  0
   25.3991    8.5496    0.1466 O   0  0  0  0  0  0  0  0  0  0  0  0
   26.2691   14.8676    7.3346 C   0  0  2  0  0  0  0  0  0  0  0  0
   29.9308    4.9774   -0.7775 N   0  0  0  0  0  0  0  0  0  0  0  0
   25.0092   14.6438    8.1856 C   0  0  2  0  0  0  0  0  0  0  0  0
   24.3880   13.2023    7.9489 C   0  0  2  0  0  0  0  0  0  0  0  0
   24.1368   13.0426    6.4484 O   0  0  0  0  0  0  0  0  0  0  0  0
   23.0820   13.0034    8.7714 C   0  0  0  0  0  0  0  0  0  0  0  0
   23.2588   13.1483   10.1720 N   0  0  0  0  0  0  0  0  0  0  0  0
   26.4252    9.2470    2.7801 C   0  0  2  0  0  0  0  0  0  0  0  0
   26.8250    8.0099    2.0475 N   0  0  0  0  0  0  0  0  0  0  0  0
   27.7776    9.9668    3.2589 C   0  0  0  0  0  0  0  0  0  0  0  0
   27.4472   11.3023    4.0241 C   0  0  2  0  0  0  0  0  0  0  0  0
   28.6779   11.9612    4.4857 N   0  0  0  0  0  0  0  0  0  0  0  0
   26.5661   11.0086    5.2547 C   0  0  2  0  0  0  0  0  0  0  0  0
   25.2242   10.2939    4.8174 C   0  0  2  0  0  0  0  0  0  0  0  0
   24.4545   10.0648    6.0561 O   0  0  0  0  0  0  0  0  0  0  0  0
   25.5882    8.8986    4.0949 C   0  0  1  0  0  0  0  0  0  0  0  0
   24.3954    8.2820    3.7252 O   0  0  0  0  0  0  0  0  0  0  0  0
   24.9202    9.7097    7.2050 C   0  0  1  0  0  0  0  0  0  0  0  0
   23.9002    9.0324    8.1670 C   0  0  2  0  0  0  0  0  0  0  0  0
   23.3151   10.0267    8.9474 O   0  0  0  0  0  0  0  0  0  0  0  0
   24.8443    8.2148    8.9469 C   0  0  1  0  0  0  0  0  0  0  0  0
   25.9252    7.6563    7.9705 C   0  0  2  0  0  0  0  0  0  0  0  0
   26.0598    8.7911    7.1504 O   0  0  0  0  0  0  0  0  0  0  0  0
   25.6586    6.3138    7.2882 C   0  0  0  0  0  0  0  0  0  0  0  0
   25.4679    5.3722    8.3273 O   0  0  0  0  0  0  0  0  0  0  0  0
   26.4371    8.6320   10.7669 C   0  0  2  0  0  0  0  0  0  0  0  0
   25.4207    9.1172    9.9955 O   0  0  0  0  0  0  0  0  0  0  0  0
   26.0993    7.3021   11.3738 C   0  0  1  0  0  0  0  0  0  0  0  0
   29.4551    9.7701   14.8815 N   0  0  0  0  0  0  0  0  0  0  0  0
   26.0633    6.1792   -1.1982 O   0  0  0  0  0  0  0  0  0  0  0  0
   27.2929    6.8267   12.2900 C   0  0  2  0  0  0  0  0  0  0  0  0
   27.6646    7.8484   13.4200 C   0  0  1  0  0  0  0  0  0  0  0  0
   27.9948    9.1158   12.8115 C   0  0  1  0  0  0  0  0  0  0  0  0
   26.8619    9.5953   11.9240 O   0  0  0  0  0  0  0  0  0  0  0  0
   28.3370   10.1983   13.9268 C   0  0  0  0  0  0  0  0  0  0  0  0
   24.9489    7.4175   12.1798 N   0  0  0  0  0  0  0  0  0  0  0  0
   26.6534   15.9306    7.5034 O   0  0  0  0  0  0  0  0  0  0  0  0
   28.0498    6.5928   -0.1771 C   0  0  0  0  0  0  0  0  0  0  0  0
   26.7479    7.9884   14.0964 O   0  0  0  0  0  0  0  0  0  0  0  0
   28.2271    6.7099   11.6290 O   0  0  0  0  0  0  0  0  0  0  0  0
   26.2054    7.7885    0.7000 C   0  0  0  0  0  0  0  0  0  0  0  0
   28.5998    5.3670   -0.4786 C   0  0  0  0  0  0  0  0  0  0  0  0
   26.7451    6.4201    0.0308 C   0  0  1  0  0  0  0  0  0  0  0  0
   24.0328   15.6008    7.8567 F   0  0  0  0  0  0  0  0  0  0  0  0
  1  2  1  1  0  0  0
  1 10  1  0  0  0  0
  1  3  1  0  0  0  0
  3  4  1  6  0  0  0
  3  6  1  0  0  0  0
  5 46  2  0  0  0  0
  6 42  1  6  0  0  0
  6  8  1  0  0  0  0
  7 47  1  0  0  0  0
  8  9  1  0  0  0  0
  8 49  1  6  0  0  0
  9 10  1  0  0  0  0
  9 11  1  1  0  0  0
 11 12  1  0  0  0  0
 13 14  1  1  0  0  0
 13 15  1  0  0  0  0
 13 21  1  0  0  0  0
 14 46  1  0  0  0  0
 15 16  1  0  0  0  0
 16 17  1  1  0  0  0
 16 18  1  0  0  0  0
 18  2  1  6  0  0  0
 18 19  1  0  0  0  0
 19 20  1  1  0  0  0
 19 21  1  0  0  0  0
 21 22  1  6  0  0  0
 23 20  1  6  0  0  0
 23 24  1  0  0  0  0
 23 28  1  0  0  0  0
 24 25  1  1  0  0  0
 24 26  1  0  0  0  0
 26 27  1  0  0  0  0
 26 32  1  1  0  0  0
 27 28  1  0  0  0  0
 27 29  1  6  0  0  0
 29 30  1  0  0  0  0
 31 32  1  1  0  0  0
 31 33  1  0  0  0  0
 31 39  1  0  0  0  0
 33 36  1  0  0  0  0
 33 41  1  1  0  0  0
 34 40  1  0  0  0  0
 35 48  1  0  0  0  0
 36 37  1  0  0  0  0
 36 45  1  6  0  0  0
 37 38  1  0  0  0  0
 37 44  1  1  0  0  0
 38 39  1  0  0  0  0
 38 40  1  1  0  0  0
 43 47  1  0  0  0  0
 46 48  1  0  0  0  0
 48 43  1  6  0  0  0
M  END
>  <CHROM.1>
-145.91732134,83.53747648,-59.16854154,-130.16719552,-38.83893153,-157.84449507
-173.17285649,-58.09056803,-51.20644971,55.70099898,-179.66501321,-73.10352301
-5.49236497,26.12532367,9.80049762,6.92991160,1.37428666,1.33292876,-1.56075844

>  <Name>
ligand

>  <RI>
0

>  <Rbt.Current_Directory>
/home/itssahil/PROJECTS/Mol_Feturizer/New_Systems/rnas/4PDQ

>  <Rbt.Executable>
rbdock ($Id: //depot/dev/client3/rdock/2013.1/src/exe/rbdock.cxx#4 $)

>  <Rbt.Library>
libRbt.so (2013.1, Build901 2013/11/27)

>  <Rbt.Parameter_File>
/export/apps/rDock/src/rDock_2013.1_src/data/scripts/dock_solv.prm

>  <Rbt.Receptor>
prm/pocket_docking_6.prm

>  <SCORE>
-6.36659

>  <SCORE.INTER>
1.05553

>  <SCORE.INTER.CONST>
1

>  <SCORE.INTER.POLAR>
0

>  <SCORE.INTER.ROT>
13

>  <SCORE.INTER.SOLV>
20.1024

>  <SCORE.INTER.VDW>
-18.2638

>  <SCORE.INTER.norm>
0.0215414

>  <SCORE.INTRA>
-7.42212

>  <SCORE.INTRA.DIHEDRAL>
-20.3033

>  <SCORE.INTRA.DIHEDRAL.0>
34.5115

>  <SCORE.INTRA.POLAR>
0

>  <SCORE.INTRA.POLAR.0>
0

>  <SCORE.INTRA.REPUL>
0

>  <SCORE.INTRA.REPUL.0>
0

>  <SCORE.INTRA.SOLV>
0.146784

>  <SCORE.INTRA.SOLV.lig_0>
-122.812

>  <SCORE.INTRA.VDW>
2.65613

>  <SCORE.INTRA.VDW.0>
-7.46208

>  <SCORE.INTRA.norm>
-0.151472

>  <SCORE.RESTR>
0

>  <SCORE.RESTR.CAVITY>
0

>  <SCORE.RESTR.norm>
0

>  <SCORE.SYSTEM>
0

>  <SCORE.SYSTEM.CONST>
0

>  <SCORE.SYSTEM.DIHEDRAL>
0

>  <SCORE.SYSTEM.SOLV>
0

>  <SCORE.SYSTEM.norm>
0

>  <SCORE.heavy>
49

>  <SCORE.norm>
-0.12993

>  <RMSD>
7.244

$$$$
ligand
 OpenBabel11021811513D
libRbt.so/2013.1/901 2013/11/27
 49 52  0  0  0  0  0  0  0  0999 V2000
   24.8091    8.3923    2.8625 C   0  0  2  0  0  0  0  0  0  0  0  0
   25.4554    7.2130    3.2413 O   0  0  0  0  0  0  0  0  0  0  0  0
   24.1829    8.2176    1.4291 C   0  0  2  0  0  0  0  0  0  0  0  0
   23.1991    7.0583    1.4529 N   0  0  0  0  0  0  0  0  0  0  0  0
   28.2972    6.1992    8.1439 O   0  0  0  0  0  0  0  0  0  0  0  0
   25.2957    7.9920    0.3790 C   0  0  2  0  0  0  0  0  0  0  0  0
   29.3865    5.0358   12.7661 N   0  0  0  0  0  0  0  0  0  0  0  0
   26.2875    9.1658    0.3876 C   0  0  2  0  0  0  0  0  0  0  0  0
   26.9393    9.3745    1.8198 C   0  0  2  0  0  0  0  0  0  0  0  0
   25.8030    9.5395    2.8306 O   0  0  0  0  0  0  0  0  0  0  0  0
   27.8999   10.5986    1.8349 C   0  0  0  0  0  0  0  0  0  0  0  0
   27.2532   11.8381    1.5908 N   0  0  0  0  0  0  0  0  0  0  0  0
   25.9711    4.9585    6.9093 C   0  0  2  0  0  0  0  0  0  0  0  0
   26.6160    4.4353    8.1492 N   0  0  0  0  0  0  0  0  0  0  0  0
   27.0648    4.8694    5.7379 C   0  0  0  0  0  0  0  0  0  0  0  0
   26.4567    5.3819    4.3793 C   0  0  2  0  0  0  0  0  0  0  0  0
   27.4557    5.3242    3.3020 N   0  0  0  0  0  0  0  0  0  0  0  0
   25.9852    6.8428    4.5228 C   0  0  2  0  0  0  0  0  0  0  0  0
   24.9075    6.9666    5.6744 C   0  0  2  0  0  0  0  0  0  0  0  0
   24.5182    8.3897    5.7258 O   0  0  0  0  0  0  0  0  0  0  0  0
   25.5752    6.4977    7.0657 C   0  0  1  0  0  0  0  0  0  0  0  0
   24.6147    6.6213    8.0666 O   0  0  0  0  0  0  0  0  0  0  0  0
   25.2601    9.3853    6.0737 C   0  0  1  0  0  0  0  0  0  0  0  0
   24.5435   10.7653    6.1553 C   0  0  2  0  0  0  0  0  0  0  0  0
   24.6576   11.3863    4.9138 O   0  0  0  0  0  0  0  0  0  0  0  0
   25.4082   11.4020    7.1627 C   0  0  1  0  0  0  0  0  0  0  0  0
   25.7827   10.3280    8.2303 C   0  0  2  0  0  0  0  0  0  0  0  0
   25.9342    9.2296    7.3649 O   0  0  0  0  0  0  0  0  0  0  0  0
   24.8617   10.1586    9.4395 C   0  0  0  0  0  0  0  0  0  0  0  0
   24.7975   11.4244   10.0690 O   0  0  0  0  0  0  0  0  0  0  0  0
   27.6378   12.4278    7.1608 C   0  0  2  0  0  0  0  0  0  0  0  0
   26.6023   11.9277    6.4252 O   0  0  0  0  0  0  0  0  0  0  0  0
   28.3353   13.5558    6.4591 C   0  0  1  0  0  0  0  0  0  0  0  0
   31.3580    9.8857    7.4589 N   0  0  0  0  0  0  0  0  0  0  0  0
   28.4936    3.0942    9.8362 O   0  0  0  0  0  0  0  0  0  0  0  0
   29.5481   14.0495    7.3397 C   0  0  2  0  0  0  0  0  0  0  0  0
   30.5783   12.9183    7.6830 C   0  0  1  0  0  0  0  0  0  0  0  0
   29.8864   11.8500    8.3653 C   0  0  1  0  0  0  0  0  0  0  0  0
   28.7140   11.3571    7.5385 O   0  0  0  0  0  0  0  0  0  0  0  0
   30.8875   10.6575    8.6950 C   0  0  0  0  0  0  0  0  0  0  0  0
   28.8450   13.1132    5.2220 N   0  0  0  0  0  0  0  0  0  0  0  0
   24.8196    7.9090   -0.6568 O   0  0  0  0  0  0  0  0  0  0  0  0
   29.5837    5.0492   10.2226 C   0  0  0  0  0  0  0  0  0  0  0  0
   31.0108   12.5129    6.7001 O   0  0  0  0  0  0  0  0  0  0  0  0
   29.1311   14.4325    8.3411 O   0  0  0  0  0  0  0  0  0  0  0  0
   27.8107    5.1835    8.6609 C   0  0  0  0  0  0  0  0  0  0  0  0
   29.9708    4.7404   11.5074 C   0  0  0  0  0  0  0  0  0  0  0  0
   28.3860    4.5054   10.0102 C   0  0  1  0  0  0  0  0  0  0  0  0
   25.6263   10.3541    0.0299 F   0  0  0  0  0  0  0  0  0  0  0  0
  1  2  1  6  0  0  0
  1 10  1  0  0  0  0
  1  3  1  0  0  0  0
  3  4  1  1  0  0  0
  3  6  1  0  0  0  0
  5 46  2  0  0  0  0
  6 42  1  6  0  0  0
  6  8  1  0  0  0  0
  7 47  1  0  0  0  0
  8  9  1  0  0  0  0
  8 49  1  1  0  0  0
  9 10  1  0  0  0  0
  9 11  1  6  0  0  0
 11 12  1  0  0  0  0
 13 14  1  1  0  0  0
 13 15  1  0  0  0  0
 13 21  1  0  0  0  0
 14 46  1  0  0  0  0
 15 16  1  0  0  0  0
 16 17  1  6  0  0  0
 16 18  1  0  0  0  0
 18  2  1  6  0  0  0
 18 19  1  0  0  0  0
 19 20  1  1  0  0  0
 19 21  1  0  0  0  0
 21 22  1  1  0  0  0
 23 20  1  1  0  0  0
 23 24  1  0  0  0  0
 23 28  1  0  0  0  0
 24 25  1  6  0  0  0
 24 26  1  0  0  0  0
 26 27  1  0  0  0  0
 26 32  1  6  0  0  0
 27 28  1  0  0  0  0
 27 29  1  1  0  0  0
 29 30  1  0  0  0  0
 31 32  1  6  0  0  0
 31 33  1  0  0  0  0
 31 39  1  0  0  0  0
 33 36  1  0  0  0  0
 33 41  1  6  0  0  0
 34 40  1  0  0  0  0
 35 48  1  0  0  0  0
 36 37  1  0  0  0  0
 36 45  1  1  0  0  0
 37 38  1  0  0  0  0
 37 44  1  6  0  0  0
 38 39  1  0  0  0  0
 38 40  1  6  0  0  0
 43 47  1  0  0  0  0
 46 48  1  0  0  0  0
 48 43  1  6  0  0  0
M  END
>  <CHROM.1>
-169.61973557,174.65582603,63.84418421,62.12791250,-66.64036300,-174.72155067
-172.37125775,-57.49121158,-147.18509340,-69.69323779,-60.46044854,-74.36147816
-133.82049350,26.97387621,8.89808406,5.99068051,2.42881881,-1.09268508,-0.51026798

>  <Name>
ligand

>  <RI>
0

>  <Rbt.Current_Directory>
/home/itssahil/PROJECTS/Mol_Feturizer/New_Systems/rnas/4PDQ

>  <Rbt.Executable>
rbdock ($Id: //depot/dev/client3/rdock/2013.1/src/exe/rbdock.cxx#4 $)

>  <Rbt.Library>
libRbt.so (2013.1, Build901 2013/11/27)

>  <Rbt.Parameter_File>
/export/apps/rDock/src/rDock_2013.1_src/data/scripts/dock_solv.prm

>  <Rbt.Receptor>
prm/pocket_docking_6.prm

>  <SCORE>
-14.1791

>  <SCORE.INTER>
-4.13683

>  <SCORE.INTER.CONST>
1

>  <SCORE.INTER.POLAR>
0

>  <SCORE.INTER.ROT>
13

>  <SCORE.INTER.SOLV>
26.1751

>  <SCORE.INTER.VDW>
-23.7496

>  <SCORE.INTER.norm>
-0.084425

>  <SCORE.INTRA>
-10.0423

>  <SCORE.INTRA.DIHEDRAL>
-26.9056

>  <SCORE.INTRA.DIHEDRAL.0>
34.5115

>  <SCORE.INTRA.POLAR>
0

>  <SCORE.INTRA.POLAR.0>
0

>  <SCORE.INTRA.REPUL>
0.00938465

>  <SCORE.INTRA.REPUL.0>
0

>  <SCORE.INTRA.SOLV>
0.558522

>  <SCORE.INTRA.SOLV.lig_0>
-122.812

>  <SCORE.INTRA.VDW>
3.08431

>  <SCORE.INTRA.VDW.0>
-7.46208

>  <SCORE.INTRA.norm>
-0.204945

>  <SCORE.RESTR>
0

>  <SCORE.RESTR.CAVITY>
0

>  <SCORE.RESTR.norm>
0

>  <SCORE.SYSTEM>
0

>  <SCORE.SYSTEM.CONST>
0

>  <SCORE.SYSTEM.DIHEDRAL>
0

>  <SCORE.SYSTEM.SOLV>
0

>  <SCORE.SYSTEM.norm>
0

>  <SCORE.heavy>
49

>  <SCORE.norm>
-0.28937

>  <RMSD>
7.245

$$$$
ligand
 OpenBabel11021811513D
libRbt.so/2013.1/901 2013/11/27
 49 52  0  0  0  0  0  0  0  0999 V2000
   26.8675   14.0731    8.9199 C   0  0  2  0  0  0  0  0  0  0  0  0
   27.8091   13.1684    9.4169 O   0  0  0  0  0  0  0  0  0  0  0  0
   25.7660   14.3456   10.0106 C   0  0  2  0  0  0  0  0  0  0  0  0
   26.4290   14.9036   11.2601 N   0  0  0  0  0  0  0  0  0  0  0  0
   30.1558   10.6100    3.4745 O   0  0  0  0  0  0  0  0  0  0  0  0
   24.9812   13.0491   10.3193 C   0  0  2  0  0  0  0  0  0  0  0  0
   33.6425    8.3976    0.4586 N   0  0  0  0  0  0  0  0  0  0  0  0
   24.3375   12.4939    9.0391 C   0  0  2  0  0  0  0  0  0  0  0  0
   25.4192   12.2080    7.9132 C   0  0  2  0  0  0  0  0  0  0  0  0
   26.2040   13.5004    7.6803 O   0  0  0  0  0  0  0  0  0  0  0  0
   24.7545   11.6988    6.6015 C   0  0  0  0  0  0  0  0  0  0  0  0
   25.6641   11.5319    5.5250 N   0  0  0  0  0  0  0  0  0  0  0  0
   30.2817   11.8080    6.1247 C   0  0  2  0  0  0  0  0  0  0  0  0
   31.4851   11.3195    5.3896 N   0  0  0  0  0  0  0  0  0  0  0  0
   30.7620   13.0241    7.0558 C   0  0  0  0  0  0  0  0  0  0  0  0
   29.5424   13.6189    7.8539 C   0  0  2  0  0  0  0  0  0  0  0  0
   29.9733   14.7213    8.7262 N   0  0  0  0  0  0  0  0  0  0  0  0
   28.8984   12.5297    8.7347 C   0  0  2  0  0  0  0  0  0  0  0  0
   28.4168   11.3121    7.8467 C   0  0  2  0  0  0  0  0  0  0  0  0
   27.8133   10.3358    8.7751 O   0  0  0  0  0  0  0  0  0  0  0  0
   29.6943   10.6805    7.0913 C   0  0  1  0  0  0  0  0  0  0  0  0
   29.2515    9.6071    6.3223 O   0  0  0  0  0  0  0  0  0  0  0  0
   27.1905    9.2506    8.4633 C   0  0  1  0  0  0  0  0  0  0  0  0
   27.2977    8.0900    9.4959 C   0  0  2  0  0  0  0  0  0  0  0  0
   28.3978    7.3071    9.1544 O   0  0  0  0  0  0  0  0  0  0  0  0
   26.0292    7.4075    9.1908 C   0  0  1  0  0  0  0  0  0  0  0  0
   24.9458    8.4955    8.9151 C   0  0  2  0  0  0  0  0  0  0  0  0
   25.7550    9.4124    8.2202 O   0  0  0  0  0  0  0  0  0  0  0  0
   24.1312    9.0206   10.0982 C   0  0  0  0  0  0  0  0  0  0  0  0
   23.0805    9.7906    9.5451 O   0  0  0  0  0  0  0  0  0  0  0  0
   26.0914    7.0717    6.7604 C   0  0  2  0  0  0  0  0  0  0  0  0
   26.2924    6.5363    8.0000 O   0  0  0  0  0  0  0  0  0  0  0  0
   24.6535    6.9950    6.3391 C   0  0  1  0  0  0  0  0  0  0  0  0
   29.2306    6.4155    3.4879 N   0  0  0  0  0  0  0  0  0  0  0  0
   33.4946    9.6737    4.3537 O   0  0  0  0  0  0  0  0  0  0  0  0
   24.5031    7.5824    4.8822 C   0  0  2  0  0  0  0  0  0  0  0  0
   25.4078    6.8683    3.8191 C   0  0  1  0  0  0  0  0  0  0  0  0
   26.7857    6.9637    4.2410 C   0  0  1  0  0  0  0  0  0  0  0  0
   26.9572    6.4051    5.6409 O   0  0  0  0  0  0  0  0  0  0  0  0
   27.7383    6.2122    3.2111 C   0  0  0  0  0  0  0  0  0  0  0  0
   24.2286    5.6514    6.3146 N   0  0  0  0  0  0  0  0  0  0  0  0
   24.1624   13.2816   11.0820 O   0  0  0  0  0  0  0  0  0  0  0  0
   32.3346    9.3607    2.4258 C   0  0  0  0  0  0  0  0  0  0  0  0
   25.1084    5.7611    3.7750 O   0  0  0  0  0  0  0  0  0  0  0  0
   24.8278    8.6857    4.9057 O   0  0  0  0  0  0  0  0  0  0  0  0
   31.2562   10.7225    4.0331 C   0  0  0  0  0  0  0  0  0  0  0  0
   33.4515    9.1430    1.6505 C   0  0  0  0  0  0  0  0  0  0  0  0
   32.6500   10.2545    3.3624 C   0  0  1  0  0  0  0  0  0  0  0  0
   23.4092   13.4192    8.5296 F   0  0  0  0  0  0  0  0  0  0  0  0
  1  2  1  1  0  0  0
  1 10  1  0  0  0  0
  1  3  1  0  0  0  0
  3  4  1  1  0  0  0
  3  6  1  0  0  0  0
  5 46  2  0  0  0  0
  6 42  1  1  0  0  0
  6  8  1  0  0  0  0
  7 47  1  0  0  0  0
  8  9  1  0  0  0  0
  8 49  1  6  0  0  0
  9 10  1  0  0  0  0
  9 11  1  6  0  0  0
 11 12  1  0  0  0  0
 13 14  1  1  0  0  0
 13 15  1  0  0  0  0
 13 21  1  0  0  0  0
 14 46  1  0  0  0  0
 15 16  1  0  0  0  0
 16 17  1  1  0  0  0
 16 18  1  0  0  0  0
 18  2  1  6  0  0  0
 18 19  1  0  0  0  0
 19 20  1  1  0  0  0
 19 21  1  0  0  0  0
 21 22  1  6  0  0  0
 23 20  1  1  0  0  0
 23 24  1  0  0  0  0
 23 28  1  0  0  0  0
 24 25  1  6  0  0  0
 24 26  1  0  0  0  0
 26 27  1  0  0  0  0
 26 32  1  6  0  0  0
 27 28  1  0  0  0  0
 27 29  1  1  0  0  0
 29 30  1  0  0  0  0
 31 32  1  1  0  0  0
 31 33  1  0  0  0  0
 31 39  1  0  0  0  0
 33 36  1  0  0  0  0
 33 41  1  6  0  0  0
 34 40  1  0  0  0  0
 35 48  1  0  0  0  0
 36 37  1  0  0  0  0
 36 45  1  1  0  0  0
 37 38  1  0  0  0  0
 37 44  1  1  0  0  0
 38 39  1  0  0  0  0
 38 40  1  6  0  0  0
 43 47  1  0  0  0  0
 46 48  1  0  0  0  0
 48 43  1  6  0  0  0
M  END
>  <CHROM.1>
172.82418636,42.29821841,175.08854153,-150.15792716,173.53524432,149.62469636
-90.06369686,-169.50244942,-83.59372919,172.66506163,-173.27844237,-72.74477862
-141.61969334,27.45967637,10.09288165,6.84066618,-2.37318103,-0.50931099
-2.55446134

>  <Name>
ligand

>  <RI>
0

>  <Rbt.Current_Directory>
/home/itssahil/PROJECTS/Mol_Feturizer/New_Systems/rnas/4PDQ

>  <Rbt.Executable>
rbdock ($Id: //depot/dev/client3/rdock/2013.1/src/exe/rbdock.cxx#4 $)

>  <Rbt.Library>
libRbt.so (2013.1, Build901 2013/11/27)

>  <Rbt.Parameter_File>
/export/apps/rDock/src/rDock_2013.1_src/data/scripts/dock_solv.prm

>  <Rbt.Receptor>
prm/pocket_docking_5.prm

>  <SCORE>
-5.77601

>  <SCORE.INTER>
1.64846

>  <SCORE.INTER.CONST>
1

>  <SCORE.INTER.POLAR>
0

>  <SCORE.INTER.ROT>
13

>  <SCORE.INTER.SOLV>
13.8921

>  <SCORE.INTER.VDW>
-15.7984

>  <SCORE.INTER.norm>
0.0336421

>  <SCORE.INTRA>
-7.42447

>  <SCORE.INTRA.DIHEDRAL>
-19.632

>  <SCORE.INTRA.DIHEDRAL.0>
34.5115

>  <SCORE.INTRA.POLAR>
0

>  <SCORE.INTRA.POLAR.0>
0

>  <SCORE.INTRA.REPUL>
0

>  <SCORE.INTRA.REPUL.0>
0

>  <SCORE.INTRA.SOLV>
1.20206

>  <SCORE.INTRA.SOLV.lig_0>
-122.812

>  <SCORE.INTRA.VDW>
1.79048

>  <SCORE.INTRA.VDW.0>
-7.46208

>  <SCORE.INTRA.norm>
-0.15152

>  <SCORE.RESTR>
0

>  <SCORE.RESTR.CAVITY>
0

>  <SCORE.RESTR.norm>
0

>  <SCORE.SYSTEM>
0

>  <SCORE.SYSTEM.CONST>
0

>  <SCORE.SYSTEM.DIHEDRAL>
0

>  <SCORE.SYSTEM.SOLV>
0

>  <SCORE.SYSTEM.norm>
0

>  <SCORE.heavy>
49

>  <SCORE.norm>
-0.117878

>  <RMSD>
7.261

$$$$
ligand
 OpenBabel11021811513D
libRbt.so/2013.1/901 2013/11/27
 49 52  0  0  0  0  0  0  0  0999 V2000
   27.6338    8.0754    1.7212 C   0  0  2  0  0  0  0  0  0  0  0  0
   26.6950    8.9788    2.2256 O   0  0  0  0  0  0  0  0  0  0  0  0
   28.7148    7.7633    2.8218 C   0  0  2  0  0  0  0  0  0  0  0  0
   28.0258    7.1829    4.0468 N   0  0  0  0  0  0  0  0  0  0  0  0
   23.1002    8.9966   -3.4475 O   0  0  0  0  0  0  0  0  0  0  0  0
   29.5095    9.0424    3.1743 C   0  0  2  0  0  0  0  0  0  0  0  0
   23.1103   10.4218   -5.9284 N   0  0  0  0  0  0  0  0  0  0  0  0
   30.1796    9.6210    1.9182 C   0  0  2  0  0  0  0  0  0  0  0  0
   29.1191    9.9471    0.7831 C   0  0  2  0  0  0  0  0  0  0  0  0
   28.3233    8.6702    0.5065 O   0  0  0  0  0  0  0  0  0  0  0  0
   29.8102   10.4801   -0.5053 C   0  0  0  0  0  0  0  0  0  0  0  0
   28.9033   10.9588   -1.4863 N   0  0  0  0  0  0  0  0  0  0  0  0
   24.1405   10.2552   -1.0375 C   0  0  2  0  0  0  0  0  0  0  0  0
   22.9229   10.7383   -1.7525 N   0  0  0  0  0  0  0  0  0  0  0  0
   23.6681    9.0882   -0.0418 C   0  0  0  0  0  0  0  0  0  0  0  0
   24.9019    8.5011    0.7400 C   0  0  2  0  0  0  0  0  0  0  0  0
   24.4791    7.4444    1.6708 N   0  0  0  0  0  0  0  0  0  0  0  0
   25.5961    9.6117    1.5535 C   0  0  2  0  0  0  0  0  0  0  0  0
   26.0712   10.7818    0.6007 C   0  0  2  0  0  0  0  0  0  0  0  0
   26.7243   11.7824    1.4678 O   0  0  0  0  0  0  0  0  0  0  0  0
   24.7817   11.4086   -0.1380 C   0  0  1  0  0  0  0  0  0  0  0  0
   25.2192   12.4405   -0.9647 O   0  0  0  0  0  0  0  0  0  0  0  0
   27.2221   11.5861    2.6410 C   0  0  1  0  0  0  0  0  0  0  0  0
   28.2361   12.6606    3.1327 C   0  0  2  0  0  0  0  0  0  0  0  0
   29.5137   12.2556    2.7537 O   0  0  0  0  0  0  0  0  0  0  0  0
   28.0268   12.5122    4.5826 C   0  0  1  0  0  0  0  0  0  0  0  0
   26.5037   12.2867    4.8332 C   0  0  2  0  0  0  0  0  0  0  0  0
   26.2355   11.4729    3.7177 O   0  0  0  0  0  0  0  0  0  0  0  0
   25.6167   13.5141    5.0473 C   0  0  0  0  0  0  0  0  0  0  0  0
   24.3793   13.0288    5.5329 O   0  0  0  0  0  0  0  0  0  0  0  0
   29.2524   11.2895    6.3222 C   0  0  2  0  0  0  0  0  0  0  0  0
   28.8644   11.3469    5.0147 O   0  0  0  0  0  0  0  0  0  0  0  0
   30.0166   10.0354    6.6295 C   0  0  1  0  0  0  0  0  0  0  0  0
   26.0254   10.4817    9.3645 N   0  0  0  0  0  0  0  0  0  0  0  0
   20.2682   10.9954   -2.6034 O   0  0  0  0  0  0  0  0  0  0  0  0
   30.3876   10.0113    8.1630 C   0  0  2  0  0  0  0  0  0  0  0  0
   29.1452   10.1236    9.1131 C   0  0  1  0  0  0  0  0  0  0  0  0
   28.4325   11.3413    8.8053 C   0  0  1  0  0  0  0  0  0  0  0  0
   28.0640   11.3893    7.3346 O   0  0  0  0  0  0  0  0  0  0  0  0
   27.1357   11.4752    9.7183 C   0  0  0  0  0  0  0  0  0  0  0  0
   29.2204    8.9054    6.3546 N   0  0  0  0  0  0  0  0  0  0  0  0
   30.3134    8.7817    3.9437 O   0  0  0  0  0  0  0  0  0  0  0  0
   21.5685   11.6829   -4.3344 C   0  0  0  0  0  0  0  0  0  0  0  0
   28.4552    9.2283    8.9131 O   0  0  0  0  0  0  0  0  0  0  0  0
   31.0565   10.9207    8.3840 O   0  0  0  0  0  0  0  0  0  0  0  0
   22.5151    9.9857   -2.9838 C   0  0  0  0  0  0  0  0  0  0  0  0
   22.0157   11.2464   -5.5614 C   0  0  0  0  0  0  0  0  0  0  0  0
   21.1781   10.6184   -3.6346 C   0  0  1  0  0  0  0  0  0  0  0  0
   31.1051    8.6975    1.4006 F   0  0  0  0  0  0  0  0  0  0  0  0
  1  2  1  1  0  0  0
  1 10  1  0  0  0  0
  1  3  1  0  0  0  0
  3  4  1  1  0  0  0
  3  6  1  0  0  0  0
  5 46  2  0  0  0  0
  6 42  1  1  0  0  0
  6  8  1  0  0  0  0
  7 47  1  0  0  0  0
  8  9  1  0  0  0  0
  8 49  1  6  0  0  0
  9 10  1  0  0  0  0
  9 11  1  6  0  0  0
 11 12  1  0  0  0  0
 13 14  1  1  0  0  0
 13 15  1  0  0  0  0
 13 21  1  0  0  0  0
 14 46  1  0  0  0  0
 15 16  1  0  0  0  0
 16 17  1  1  0  0  0
 16 18  1  0  0  0  0
 18  2  1  6  0  0  0
 18 19  1  0  0  0  0
 19 20  1  1  0  0  0
 19 21  1  0  0  0  0
 21 22  1  6  0  0  0
 23 20  1  6  0  0  0
 23 24  1  0  0  0  0
 23 28  1  0  0  0  0
 24 25  1  1  0  0  0
 24 26  1  0  0  0  0
 26 27  1  0  0  0  0
 26 32  1  6  0  0  0
 27 28  1  0  0  0  0
 27 29  1  6  0  0  0
 29 30  1  0  0  0  0
 31 32  1  6  0  0  0
 31 33  1  0  0  0  0
 31 39  1  0  0  0  0
 33 36  1  0  0  0  0
 33 41  1  1  0  0  0
 34 40  1  0  0  0  0
 35 48  1  0  0  0  0
 36 37  1  0  0  0  0
 36 45  1  6  0  0  0
 37 38  1  0  0  0  0
 37 44  1  6  0  0  0
 38 39  1  0  0  0  0
 38 40  1  1  0  0  0
 43 47  1  0  0  0  0
 46 48  1  0  0  0  0
 48 43  1  1  0  0  0
M  END
>  <CHROM.1>
175.19782054,45.12492737,-171.88340240,-85.42453672,21.44155285,160.96917254
156.03429150,-167.56577184,176.76209331,-70.81327556,-64.23638153,-158.22262599
139.37648980,26.81362179,10.41261205,2.47181665,-2.13316328,-0.35559519,1.35221702

>  <Name>
ligand

>  <RI>
0

>  <Rbt.Current_Directory>
/home/itssahil/PROJECTS/Mol_Feturizer/New_Systems/rnas/4PDQ

>  <Rbt.Executable>
rbdock ($Id: //depot/dev/client3/rdock/2013.1/src/exe/rbdock.cxx#4 $)

>  <Rbt.Library>
libRbt.so (2013.1, Build901 2013/11/27)

>  <Rbt.Parameter_File>
/export/apps/rDock/src/rDock_2013.1_src/data/scripts/dock_solv.prm

>  <Rbt.Receptor>
prm/pocket_docking_5.prm

>  <SCORE>
-11.6557

>  <SCORE.INTER>
-5.71514

>  <SCORE.INTER.CONST>
1

>  <SCORE.INTER.POLAR>
0

>  <SCORE.INTER.ROT>
13

>  <SCORE.INTER.SOLV>
20.5868

>  <SCORE.INTER.VDW>
-22.939

>  <SCORE.INTER.norm>
-0.116636

>  <SCORE.INTRA>
-5.94054

>  <SCORE.INTRA.DIHEDRAL>
-19.5591

>  <SCORE.INTRA.DIHEDRAL.0>
34.5115

>  <SCORE.INTRA.POLAR>
0

>  <SCORE.INTRA.POLAR.0>
0

>  <SCORE.INTRA.REPUL>
0.0510333

>  <SCORE.INTRA.REPUL.0>
0

>  <SCORE.INTRA.SOLV>
6.27884

>  <SCORE.INTRA.SOLV.lig_0>
-122.812

>  <SCORE.INTRA.VDW>
0.444413

>  <SCORE.INTRA.VDW.0>
-7.46208

>  <SCORE.INTRA.norm>
-0.121235

>  <SCORE.RESTR>
0

>  <SCORE.RESTR.CAVITY>
0

>  <SCORE.RESTR.norm>
0

>  <SCORE.SYSTEM>
0

>  <SCORE.SYSTEM.CONST>
0

>  <SCORE.SYSTEM.DIHEDRAL>
0

>  <SCORE.SYSTEM.SOLV>
0

>  <SCORE.SYSTEM.norm>
0

>  <SCORE.heavy>
49

>  <SCORE.norm>
-0.237871

>  <RMSD>
7.261

$$$$
ligand
 OpenBabel11021811513D
libRbt.so/2013.1/901 2013/11/27
 49 52  0  0  0  0  0  0  0  0999 V2000
   31.8341    9.2134    2.8930 C   0  0  2  0  0  0  0  0  0  0  0  0
   31.3977   10.0084    1.8302 O   0  0  0  0  0  0  0  0  0  0  0  0
   33.1398    9.8319    3.5174 C   0  0  2  0  0  0  0  0  0  0  0  0
   32.8419   11.2433    3.9988 N   0  0  0  0  0  0  0  0  0  0  0  0
   26.6594   13.4237   -1.5920 O   0  0  0  0  0  0  0  0  0  0  0  0
   34.2897    9.8194    2.4832 C   0  0  2  0  0  0  0  0  0  0  0  0
   23.4618   13.9150   -5.5864 N   0  0  0  0  0  0  0  0  0  0  0  0
   34.5586    8.3865    1.9973 C   0  0  2  0  0  0  0  0  0  0  0  0
   33.2617    7.7278    1.3617 C   0  0  2  0  0  0  0  0  0  0  0  0
   32.1398    7.8110    2.3984 O   0  0  0  0  0  0  0  0  0  0  0  0
   33.5265    6.2585    0.9228 C   0  0  0  0  0  0  0  0  0  0  0  0
   34.4079    6.1404   -0.1831 N   0  0  0  0  0  0  0  0  0  0  0  0
   27.7529   11.0762   -0.2622 C   0  0  2  0  0  0  0  0  0  0  0  0
   26.6412   11.0103   -1.2556 N   0  0  0  0  0  0  0  0  0  0  0  0
   29.1200   10.8484   -1.0718 C   0  0  0  0  0  0  0  0  0  0  0  0
   30.3543   10.9272   -0.0978 C   0  0  2  0  0  0  0  0  0  0  0  0
   31.6120   10.6998   -0.8247 N   0  0  0  0  0  0  0  0  0  0  0  0
   30.2335    9.8564    1.0048 C   0  0  2  0  0  0  0  0  0  0  0  0
   28.8920   10.0502    1.8207 C   0  0  2  0  0  0  0  0  0  0  0  0
   28.8753    8.9899    2.8478 O   0  0  0  0  0  0  0  0  0  0  0  0
   27.6422    9.8999    0.8123 C   0  0  1  0  0  0  0  0  0  0  0  0
   26.4725   10.0656    1.5498 O   0  0  0  0  0  0  0  0  0  0  0  0
   28.1326    8.9407    3.9008 C   0  0  1  0  0  0  0  0  0  0  0  0
   27.3402   10.2402    4.2295 C   0  0  2  0  0  0  0  0  0  0  0  0
   28.1230   11.0222    5.0754 O   0  0  0  0  0  0  0  0  0  0  0  0
   26.2076    9.6307    4.9462 C   0  0  1  0  0  0  0  0  0  0  0  0
   25.8291    8.3039    4.2184 C   0  0  2  0  0  0  0  0  0  0  0  0
   27.1291    7.8735    3.8975 O   0  0  0  0  0  0  0  0  0  0  0  0
   24.8018    8.3675    3.0872 C   0  0  0  0  0  0  0  0  0  0  0  0
   24.5773    7.0308    2.6803 O   0  0  0  0  0  0  0  0  0  0  0  0
   25.7449    8.9896    7.2697 C   0  0  2  0  0  0  0  0  0  0  0  0
   26.6678    9.4084    6.3552 O   0  0  0  0  0  0  0  0  0  0  0  0
   24.7198   10.0457    7.5612 C   0  0  1  0  0  0  0  0  0  0  0  0
   27.2055    6.5038   10.7694 N   0  0  0  0  0  0  0  0  0  0  0  0
   23.8200   11.6207   -2.2343 O   0  0  0  0  0  0  0  0  0  0  0  0
   23.7191    9.5145    8.6595 C   0  0  2  0  0  0  0  0  0  0  0  0
   24.4214    9.0730    9.9902 C   0  0  1  0  0  0  0  0  0  0  0  0
   25.3950    8.0508    9.6857 C   0  0  1  0  0  0  0  0  0  0  0  0
   26.3701    8.5370    8.6304 O   0  0  0  0  0  0  0  0  0  0  0  0
   26.1652    7.6027   11.0044 C   0  0  0  0  0  0  0  0  0  0  0  0
   25.3482   11.2023    8.0651 N   0  0  0  0  0  0  0  0  0  0  0  0
   35.2355   10.2348    2.9722 O   0  0  0  0  0  0  0  0  0  0  0  0
   24.7726   13.2471   -3.5021 C   0  0  0  0  0  0  0  0  0  0  0  0
   24.9638    9.9831   10.4318 O   0  0  0  0  0  0  0  0  0  0  0  0
   23.1886    8.5838    8.2406 O   0  0  0  0  0  0  0  0  0  0  0  0
   26.1850   12.3087   -1.8513 C   0  0  0  0  0  0  0  0  0  0  0  0
   24.0234   13.0241   -4.6358 C   0  0  0  0  0  0  0  0  0  0  0  0
   24.9900   12.0719   -2.9132 C   0  0  1  0  0  0  0  0  0  0  0  0
   34.9734    7.5849    3.0756 F   0  0  0  0  0  0  0  0  0  0  0  0
  1  2  1  6  0  0  0
  1 10  1  0  0  0  0
  1  3  1  0  0  0  0
  3  4  1  6  0  0  0
  3  6  1  0  0  0  0
  5 46  2  0  0  0  0
  6 42  1  1  0  0  0
  6  8  1  0  0  0  0
  7 47  1  0  0  0  0
  8  9  1  0  0  0  0
  8 49  1  1  0  0  0
  9 10  1  0  0  0  0
  9 11  1  1  0  0  0
 11 12  1  0  0  0  0
 13 14  1  6  0  0  0
 13 15  1  0  0  0  0
 13 21  1  0  0  0  0
 14 46  1  0  0  0  0
 15 16  1  0  0  0  0
 16 17  1  6  0  0  0
 16 18  1  0  0  0  0
 18  2  1  1  0  0  0
 18 19  1  0  0  0  0
 19 20  1  1  0  0  0
 19 21  1  0  0  0  0
 21 22  1  1  0  0  0
 23 20  1  6  0  0  0
 23 24  1  0  0  0  0
 23 28  1  0  0  0  0
 24 25  1  1  0  0  0
 24 26  1  0  0  0  0
 26 27  1  0  0  0  0
 26 32  1  1  0  0  0
 27 28  1  0  0  0  0
 27 29  1  6  0  0  0
 29 30  1  0  0  0  0
 31 32  1  6  0  0  0
 31 33  1  0  0  0  0
 31 39  1  0  0  0  0
 33 36  1  0  0  0  0
 33 41  1  1  0  0  0
 34 40  1  0  0  0  0
 35 48  1  0  0  0  0
 36 37  1  0  0  0  0
 36 45  1  6  0  0  0
 37 38  1  0  0  0  0
 37 44  1  6  0  0  0
 38 39  1  0  0  0  0
 38 40  1  1  0  0  0
 43 47  1  0  0  0  0
 46 48  1  0  0  0  0
 48 43  1  1  0  0  0
M  END
>  <CHROM.1>
-177.66049298,-173.70064926,-68.74166730,-93.30843389,163.80856767,-10.33055363
172.67592397,-175.78411838,-67.95501334,179.21168496,176.51355057,-75.93921575
-113.39323230,28.16857336,9.69538160,3.05078370,-1.24677750,-0.23443493,1.86393774

>  <Name>
ligand

>  <RI>
0

>  <Rbt.Current_Directory>
/home/itssahil/PROJECTS/Mol_Feturizer/New_Systems/rnas/4PDQ

>  <Rbt.Executable>
rbdock ($Id: //depot/dev/client3/rdock/2013.1/src/exe/rbdock.cxx#4 $)

>  <Rbt.Library>
libRbt.so (2013.1, Build901 2013/11/27)

>  <Rbt.Parameter_File>
/export/apps/rDock/src/rDock_2013.1_src/data/scripts/dock_solv.prm

>  <Rbt.Receptor>
prm/pocket_docking_4.prm

>  <SCORE>
-9.03182

>  <SCORE.INTER>
0.358875

>  <SCORE.INTER.CONST>
1

>  <SCORE.INTER.POLAR>
0

>  <SCORE.INTER.ROT>
13

>  <SCORE.INTER.SOLV>
14.0674

>  <SCORE.INTER.VDW>
-16.7166

>  <SCORE.INTER.norm>
0.00732397

>  <SCORE.INTRA>
-9.41142

>  <SCORE.INTRA.DIHEDRAL>
-22.9908

>  <SCORE.INTRA.DIHEDRAL.0>
34.5115

>  <SCORE.INTRA.POLAR>
0

>  <SCORE.INTRA.POLAR.0>
0

>  <SCORE.INTRA.REPUL>
0

>  <SCORE.INTRA.REPUL.0>
0

>  <SCORE.INTRA.SOLV>
-4.04023

>  <SCORE.INTRA.SOLV.lig_0>
-122.812

>  <SCORE.INTRA.VDW>
4.10409

>  <SCORE.INTRA.VDW.0>
-7.46208

>  <SCORE.INTRA.norm>
-0.19207

>  <SCORE.RESTR>
0.0207274

>  <SCORE.RESTR.CAVITY>
0.0207274

>  <SCORE.RESTR.norm>
0.000423009

>  <SCORE.SYSTEM>
0

>  <SCORE.SYSTEM.CONST>
0

>  <SCORE.SYSTEM.DIHEDRAL>
0

>  <SCORE.SYSTEM.SOLV>
0

>  <SCORE.SYSTEM.norm>
0

>  <SCORE.heavy>
49

>  <SCORE.norm>
-0.184323

>  <RMSD>
7.271

$$$$
ligand
 OpenBabel11021811513D
libRbt.so/2013.1/901 2013/11/27
 49 52  0  0  0  0  0  0  0  0999 V2000
   32.5844   10.1046    2.5337 C   0  0  2  0  0  0  0  0  0  0  0  0
   31.9219    8.9387    2.1417 O   0  0  0  0  0  0  0  0  0  0  0  0
   32.3536   11.2327    1.4608 C   0  0  2  0  0  0  0  0  0  0  0  0
   30.8615   11.4919    1.3231 N   0  0  0  0  0  0  0  0  0  0  0  0
   26.5473    7.0774    1.3519 O   0  0  0  0  0  0  0  0  0  0  0  0
   32.9829   10.8263    0.1078 C   0  0  2  0  0  0  0  0  0  0  0  0
   23.8307    9.7550   -2.4606 N   0  0  0  0  0  0  0  0  0  0  0  0
   34.4853   10.5506    0.2762 C   0  0  2  0  0  0  0  0  0  0  0  0
   34.7582    9.4176    1.3539 C   0  0  2  0  0  0  0  0  0  0  0  0
   34.0737    9.8369    2.6561 O   0  0  0  0  0  0  0  0  0  0  0  0
   36.2828    9.1830    1.5594 C   0  0  0  0  0  0  0  0  0  0  0  0
   36.5930    7.9536    2.1970 N   0  0  0  0  0  0  0  0  0  0  0  0
   27.7689    9.7132    1.1642 C   0  0  2  0  0  0  0  0  0  0  0  0
   26.3396    9.4478    0.8267 N   0  0  0  0  0  0  0  0  0  0  0  0
   28.6567    8.7468    0.2399 C   0  0  0  0  0  0  0  0  0  0  0  0
   30.1890    8.9800    0.5151 C   0  0  2  0  0  0  0  0  0  0  0  0
   31.0129    8.0857   -0.3115 N   0  0  0  0  0  0  0  0  0  0  0  0
   30.5136    8.7032    1.9967 C   0  0  2  0  0  0  0  0  0  0  0  0
   29.6505    9.6381    2.9369 C   0  0  2  0  0  0  0  0  0  0  0  0
   30.0377    9.3034    4.3216 O   0  0  0  0  0  0  0  0  0  0  0  0
   28.0873    9.3332    2.6823 C   0  0  1  0  0  0  0  0  0  0  0  0
   27.3458   10.1591    3.5235 O   0  0  0  0  0  0  0  0  0  0  0  0
   29.4497    9.6819    5.4051 C   0  0  1  0  0  0  0  0  0  0  0  0
   30.1487    9.2668    6.7331 C   0  0  2  0  0  0  0  0  0  0  0  0
   29.6283    8.0374    7.1303 O   0  0  0  0  0  0  0  0  0  0  0  0
   29.6643   10.3636    7.5878 C   0  0  1  0  0  0  0  0  0  0  0  0
   29.6674   11.6753    6.7436 C   0  0  2  0  0  0  0  0  0  0  0  0
   29.2414   11.1273    5.5202 O   0  0  0  0  0  0  0  0  0  0  0  0
   30.9372   12.5277    6.7368 C   0  0  0  0  0  0  0  0  0  0  0  0
   30.7868   13.4709    7.7811 O   0  0  0  0  0  0  0  0  0  0  0  0
   28.1825    9.2748    9.2134 C   0  0  2  0  0  0  0  0  0  0  0  0
   28.2918    9.9708    8.0441 O   0  0  0  0  0  0  0  0  0  0  0  0
   26.8548    8.5874    9.3388 C   0  0  1  0  0  0  0  0  0  0  0  0
   27.5387   11.5934   13.0963 N   0  0  0  0  0  0  0  0  0  0  0  0
   23.5178    7.7060    1.7602 O   0  0  0  0  0  0  0  0  0  0  0  0
   26.7781    7.8478   10.7307 C   0  0  2  0  0  0  0  0  0  0  0  0
   27.0054    8.7944   11.9599 C   0  0  1  0  0  0  0  0  0  0  0  0
   28.2917    9.4361   11.8216 C   0  0  1  0  0  0  0  0  0  0  0  0
   28.3913   10.1551   10.4896 O   0  0  0  0  0  0  0  0  0  0  0  0
   28.5463   10.4423   13.0283 C   0  0  0  0  0  0  0  0  0  0  0  0
   25.8136    9.5359    9.2900 N   0  0  0  0  0  0  0  0  0  0  0  0
   32.8380   11.6771   -0.6414 O   0  0  0  0  0  0  0  0  0  0  0  0
   23.9636    9.0576   -0.0102 C   0  0  0  0  0  0  0  0  0  0  0  0
   26.1862    9.5984   11.9532 O   0  0  0  0  0  0  0  0  0  0  0  0
   27.6132    7.0573   10.7627 O   0  0  0  0  0  0  0  0  0  0  0  0
   25.8590    8.0347    0.9705 C   0  0  0  0  0  0  0  0  0  0  0  0
   24.1179    8.8956   -1.3689 C   0  0  0  0  0  0  0  0  0  0  0  0
   24.2951    7.9112    0.5825 C   0  0  1  0  0  0  0  0  0  0  0  0
   35.1430   11.7209    0.6949 F   0  0  0  0  0  0  0  0  0  0  0  0
  1  2  1  6  0  0  0
  1 10  1  0  0  0  0
  1  3  1  0  0  0  0
  3  4  1  6  0  0  0
  3  6  1  0  0  0  0
  5 46  2  0  0  0  0
  6 42  1  6  0  0  0
  6  8  1  0  0  0  0
  7 47  1  0  0  0  0
  8  9  1  0  0  0  0
  8 49  1  1  0  0  0
  9 10  1  0  0  0  0
  9 11  1  1  0  0  0
 11 12  1  0  0  0  0
 13 14  1  6  0  0  0
 13 15  1  0  0  0  0
 13 21  1  0  0  0  0
 14 46  1  0  0  0  0
 15 16  1  0  0  0  0
 16 17  1  6  0  0  0
 16 18  1  0  0  0  0
 18  2  1  6  0  0  0
 18 19  1  0  0  0  0
 19 20  1  1  0  0  0
 19 21  1  0  0  0  0
 21 22  1  1  0  0  0
 23 20  1  6  0  0  0
 23 24  1  0  0  0  0
 23 28  1  0  0  0  0
 24 25  1  1  0  0  0
 24 26  1  0  0  0  0
 26 27  1  0  0  0  0
 26 32  1  6  0  0  0
 27 28  1  0  0  0  0
 27 29  1  6  0  0  0
 29 30  1  0  0  0  0
 31 32  1  6  0  0  0
 31 33  1  0  0  0  0
 31 39  1  0  0  0  0
 33 36  1  0  0  0  0
 33 41  1  1  0  0  0
 34 40  1  0  0  0  0
 35 48  1  0  0  0  0
 36 37  1  0  0  0  0
 36 45  1  6  0  0  0
 37 38  1  0  0  0  0
 37 44  1  6  0  0  0
 38 39  1  0  0  0  0
 38 40  1  1  0  0  0
 43 47  1  0  0  0  0
 46 48  1  0  0  0  0
 48 43  1  1  0  0  0
M  END
>  <CHROM.1>
-65.07642850,93.59115004,-162.76863369,56.76447156,-169.13216473,-175.30553112
90.77858615,-91.93479062,-162.25152457,-62.32646052,175.53705738,-147.43695122
71.35662369,29.32841980,9.65046072,4.45959695,-1.25481338,0.19658313,1.51064655

>  <Name>
ligand

>  <RI>
0

>  <Rbt.Current_Directory>
/home/itssahil/PROJECTS/Mol_Feturizer/New_Systems/rnas/4PDQ

>  <Rbt.Executable>
rbdock ($Id: //depot/dev/client3/rdock/2013.1/src/exe/rbdock.cxx#4 $)

>  <Rbt.Library>
libRbt.so (2013.1, Build901 2013/11/27)

>  <Rbt.Parameter_File>
/export/apps/rDock/src/rDock_2013.1_src/data/scripts/dock_solv.prm

>  <Rbt.Receptor>
prm/pocket_docking_3.prm

>  <SCORE>
-1.18676

>  <SCORE.INTER>
-1.81998

>  <SCORE.INTER.CONST>
1

>  <SCORE.INTER.POLAR>
0

>  <SCORE.INTER.ROT>
13

>  <SCORE.INTER.SOLV>
22.3552

>  <SCORE.INTER.VDW>
-20.9317

>  <SCORE.INTER.norm>
-0.0371425

>  <SCORE.INTRA>
0.452157

>  <SCORE.INTRA.DIHEDRAL>
-14.9429

>  <SCORE.INTRA.DIHEDRAL.0>
34.5115

>  <SCORE.INTRA.POLAR>
0

>  <SCORE.INTRA.POLAR.0>
0

>  <SCORE.INTRA.REPUL>
0

>  <SCORE.INTRA.REPUL.0>
0

>  <SCORE.INTRA.SOLV>
3.60926

>  <SCORE.INTRA.SOLV.lig_0>
-122.812

>  <SCORE.INTRA.VDW>
6.11898

>  <SCORE.INTRA.VDW.0>
-7.46208

>  <SCORE.INTRA.norm>
0.0092277

>  <SCORE.RESTR>
0.181063

>  <SCORE.RESTR.CAVITY>
0.181063

>  <SCORE.RESTR.norm>
0.00369517

>  <SCORE.SYSTEM>
0

>  <SCORE.SYSTEM.CONST>
0

>  <SCORE.SYSTEM.DIHEDRAL>
0

>  <SCORE.SYSTEM.SOLV>
0

>  <SCORE.SYSTEM.norm>
0

>  <SCORE.heavy>
49

>  <SCORE.norm>
-0.0242197

>  <RMSD>
7.296

$$$$
ligand
 OpenBabel11021811513D
libRbt.so/2013.1/901 2013/11/27
 49 52  0  0  0  0  0  0  0  0999 V2000
   28.8656   11.0037    4.4051 C   0  0  2  0  0  0  0  0  0  0  0  0
   29.0806   11.5758    3.1487 O   0  0  0  0  0  0  0  0  0  0  0  0
   29.1436   12.0703    5.5286 C   0  0  2  0  0  0  0  0  0  0  0  0
   28.2212   13.2618    5.3240 N   0  0  0  0  0  0  0  0  0  0  0  0
   26.3901   13.9632   -2.7405 O   0  0  0  0  0  0  0  0  0  0  0  0
   30.6298   12.4975    5.5100 C   0  0  2  0  0  0  0  0  0  0  0  0
   26.1401   11.7681   -7.5576 N   0  0  0  0  0  0  0  0  0  0  0  0
   31.5418   11.2751    5.6985 C   0  0  2  0  0  0  0  0  0  0  0  0
   31.2885   10.1747    4.5829 C   0  0  2  0  0  0  0  0  0  0  0  0
   29.7997    9.8235    4.6028 O   0  0  0  0  0  0  0  0  0  0  0  0
   32.1755    8.9169    4.8124 C   0  0  0  0  0  0  0  0  0  0  0  0
   31.9888    7.8987    3.8416 N   0  0  0  0  0  0  0  0  0  0  0  0
   27.5829   12.0565   -0.8922 C   0  0  2  0  0  0  0  0  0  0  0  0
   27.1621   11.6986   -2.2785 N   0  0  0  0  0  0  0  0  0  0  0  0
   28.9886   11.3289   -0.6256 C   0  0  0  0  0  0  0  0  0  0  0  0
   29.5209   11.6746    0.8150 C   0  0  2  0  0  0  0  0  0  0  0  0
   30.7991   10.9974    1.0788 N   0  0  0  0  0  0  0  0  0  0  0  0
   28.5051   11.2216    1.8826 C   0  0  2  0  0  0  0  0  0  0  0  0
   27.1047   11.9185    1.6458 C   0  0  2  0  0  0  0  0  0  0  0  0
   26.2125   11.4288    2.7152 O   0  0  0  0  0  0  0  0  0  0  0  0
   26.5515   11.4960    0.1908 C   0  0  1  0  0  0  0  0  0  0  0  0
   25.3165   12.1122    0.0049 O   0  0  0  0  0  0  0  0  0  0  0  0
   26.1802   10.2409    3.2158 C   0  0  1  0  0  0  0  0  0  0  0  0
   24.9283    9.9058    4.0790 C   0  0  2  0  0  0  0  0  0  0  0  0
   25.2165   10.2279    5.4030 O   0  0  0  0  0  0  0  0  0  0  0  0
   24.9003    8.4488    3.8679 C   0  0  1  0  0  0  0  0  0  0  0  0
   25.2802    8.1656    2.3817 C   0  0  2  0  0  0  0  0  0  0  0  0
   26.2677    9.1565    2.2350 O   0  0  0  0  0  0  0  0  0  0  0  0
   24.1574    8.1219    1.3442 C   0  0  0  0  0  0  0  0  0  0  0  0
   23.2977    7.0679    1.7349 O   0  0  0  0  0  0  0  0  0  0  0  0
   25.6316    6.6054    5.3138 C   0  0  2  0  0  0  0  0  0  0  0  0
   25.8791    7.8611    4.8389 O   0  0  0  0  0  0  0  0  0  0  0  0
   24.3675    6.5462    6.1199 C   0  0  1  0  0  0  0  0  0  0  0  0
   27.7809    2.6896    8.0215 N   0  0  0  0  0  0  0  0  0  0  0  0
   24.9961   12.9197   -5.0463 O   0  0  0  0  0  0  0  0  0  0  0  0
   24.1711    5.0833    6.6782 C   0  0  2  0  0  0  0  0  0  0  0  0
   25.3766    4.5717    7.5406 C   0  0  1  0  0  0  0  0  0  0  0  0
   26.5781    4.6288    6.7415 C   0  0  1  0  0  0  0  0  0  0  0  0
   26.7899    6.0267    6.1917 O   0  0  0  0  0  0  0  0  0  0  0  0
   27.8379    4.1586    7.5929 C   0  0  0  0  0  0  0  0  0  0  0  0
   24.4536    7.4252    7.2181 N   0  0  0  0  0  0  0  0  0  0  0  0
   30.8151   13.2399    6.3591 O   0  0  0  0  0  0  0  0  0  0  0  0
   27.2096   12.5240   -5.3682 C   0  0  0  0  0  0  0  0  0  0  0  0
   25.4972    5.2701    8.4435 O   0  0  0  0  0  0  0  0  0  0  0  0
   24.0776    4.3677    5.7825 O   0  0  0  0  0  0  0  0  0  0  0  0
   26.5589   12.7920   -3.1087 C   0  0  0  0  0  0  0  0  0  0  0  0
   27.0936   11.7588   -6.5071 C   0  0  0  0  0  0  0  0  0  0  0  0
   26.1685   12.2541   -4.5817 C   0  0  1  0  0  0  0  0  0  0  0  0
   31.3034   10.6887    6.9542 F   0  0  0  0  0  0  0  0  0  0  0  0
  1  2  1  6  0  0  0
  1 10  1  0  0  0  0
  1  3  1  0  0  0  0
  3  4  1  6  0  0  0
  3  6  1  0  0  0  0
  5 46  2  0  0  0  0
  6 42  1  1  0  0  0
  6  8  1  0  0  0  0
  7 47  1  0  0  0  0
  8  9  1  0  0  0  0
  8 49  1  1  0  0  0
  9 10  1  0  0  0  0
  9 11  1  1  0  0  0
 11 12  1  0  0  0  0
 13 14  1  6  0  0  0
 13 15  1  0  0  0  0
 13 21  1  0  0  0  0
 14 46  1  0  0  0  0
 15 16  1  0  0  0  0
 16 17  1  1  0  0  0
 16 18  1  0  0  0  0
 18  2  1  1  0  0  0
 18 19  1  0  0  0  0
 19 20  1  1  0  0  0
 19 21  1  0  0  0  0
 21 22  1  6  0  0  0
 23 20  1  6  0  0  0
 23 24  1  0  0  0  0
 23 28  1  0  0  0  0
 24 25  1  1  0  0  0
 24 26  1  0  0  0  0
 26 27  1  0  0  0  0
 26 32  1  1  0  0  0
 27 28  1  0  0  0  0
 27 29  1  6  0  0  0
 29 30  1  0  0  0  0
 31 32  1  1  0  0  0
 31 33  1  0  0  0  0
 31 39  1  0  0  0  0
 33 36  1  0  0  0  0
 33 41  1  1  0  0  0
 34 40  1  0  0  0  0
 35 48  1  0  0  0  0
 36 37  1  0  0  0  0
 36 45  1  6  0  0  0
 37 38  1  0  0  0  0
 37 44  1  1  0  0  0
 38 39  1  0  0  0  0
 38 40  1  1  0  0  0
 43 47  1  0  0  0  0
 46 48  1  0  0  0  0
 48 43  1  6  0  0  0
M  END
>  <CHROM.1>
-153.72358647,-154.12008208,179.98598755,-138.87984829,-37.19991339,-165.87769084
149.62741195,-61.15844037,-63.72309080,64.75075101,65.62683017,-77.68719219
-34.71187748,27.25967814,9.65107379,2.79672330,-1.57388439,-0.64862670,-1.04254293

>  <Name>
ligand

>  <RI>
0

>  <Rbt.Current_Directory>
/home/itssahil/PROJECTS/Mol_Feturizer/New_Systems/rnas/4PDQ

>  <Rbt.Executable>
rbdock ($Id: //depot/dev/client3/rdock/2013.1/src/exe/rbdock.cxx#4 $)

>  <Rbt.Library>
libRbt.so (2013.1, Build901 2013/11/27)

>  <Rbt.Parameter_File>
/export/apps/rDock/src/rDock_2013.1_src/data/scripts/dock_solv.prm

>  <Rbt.Receptor>
prm/pocket_docking_7.prm

>  <SCORE>
-16.2576

>  <SCORE.INTER>
-9.24309

>  <SCORE.INTER.CONST>
1

>  <SCORE.INTER.POLAR>
0

>  <SCORE.INTER.ROT>
13

>  <SCORE.INTER.SOLV>
19.9532

>  <SCORE.INTER.VDW>
-25.0798

>  <SCORE.INTER.norm>
-0.188634

>  <SCORE.INTRA>
-7.01456

>  <SCORE.INTRA.DIHEDRAL>
-17.7849

>  <SCORE.INTRA.DIHEDRAL.0>
34.5115

>  <SCORE.INTRA.POLAR>
0

>  <SCORE.INTRA.POLAR.0>
0

>  <SCORE.INTRA.REPUL>
0.0060684

>  <SCORE.INTRA.REPUL.0>
0

>  <SCORE.INTRA.SOLV>
-0.426233

>  <SCORE.INTRA.SOLV.lig_0>
-122.812

>  <SCORE.INTRA.VDW>
2.06067

>  <SCORE.INTRA.VDW.0>
-7.46208

>  <SCORE.INTRA.norm>
-0.143154

>  <SCORE.RESTR>
0

>  <SCORE.RESTR.CAVITY>
0

>  <SCORE.RESTR.norm>
0

>  <SCORE.SYSTEM>
0

>  <SCORE.SYSTEM.CONST>
0

>  <SCORE.SYSTEM.DIHEDRAL>
0

>  <SCORE.SYSTEM.SOLV>
0

>  <SCORE.SYSTEM.norm>
0

>  <SCORE.heavy>
49

>  <SCORE.norm>
-0.331789

>  <RMSD>
7.307

$$$$
ligand
 OpenBabel11021811513D
libRbt.so/2013.1/901 2013/11/27
 49 52  0  0  0  0  0  0  0  0999 V2000
   31.8157    8.5656    3.4285 C   0  0  2  0  0  0  0  0  0  0  0  0
   31.0027    9.3894    2.6461 O   0  0  0  0  0  0  0  0  0  0  0  0
   33.0358    9.3931    3.9799 C   0  0  2  0  0  0  0  0  0  0  0  0
   32.5149   10.5603    4.8037 N   0  0  0  0  0  0  0  0  0  0  0  0
   25.9103   11.2381   -1.5937 O   0  0  0  0  0  0  0  0  0  0  0  0
   33.9280    9.8791    2.8139 C   0  0  2  0  0  0  0  0  0  0  0  0
   21.4420   10.8535   -3.9544 N   0  0  0  0  0  0  0  0  0  0  0  0
   34.4255    8.6845    1.9850 C   0  0  2  0  0  0  0  0  0  0  0  0
   33.2211    7.8234    1.4127 C   0  0  2  0  0  0  0  0  0  0  0  0
   32.3393    7.4114    2.5929 O   0  0  0  0  0  0  0  0  0  0  0  0
   33.7325    6.5848    0.6216 C   0  0  0  0  0  0  0  0  0  0  0  0
   32.7020    5.8457   -0.0154 N   0  0  0  0  0  0  0  0  0  0  0  0
   27.4205    9.5190    0.2060 C   0  0  2  0  0  0  0  0  0  0  0  0
   26.0495    9.1889   -0.2824 N   0  0  0  0  0  0  0  0  0  0  0  0
   28.1690    8.1259    0.4807 C   0  0  0  0  0  0  0  0  0  0  0  0
   29.6401    8.3824    0.9789 C   0  0  2  0  0  0  0  0  0  0  0  0
   30.3301    7.1133    1.2535 N   0  0  0  0  0  0  0  0  0  0  0  0
   29.6269    9.2153    2.2762 C   0  0  2  0  0  0  0  0  0  0  0  0
   28.8911   10.5959    2.0408 C   0  0  2  0  0  0  0  0  0  0  0  0
   28.9387   11.3153    3.3290 O   0  0  0  0  0  0  0  0  0  0  0  0
   27.3685   10.3057    1.5949 C   0  0  1  0  0  0  0  0  0  0  0  0
   26.7365   11.5314    1.4005 O   0  0  0  0  0  0  0  0  0  0  0  0
   28.5591   10.8734    4.4794 C   0  0  1  0  0  0  0  0  0  0  0  0
   28.4587   11.9373    5.6119 C   0  0  2  0  0  0  0  0  0  0  0  0
   29.6850   11.9855    6.2705 O   0  0  0  0  0  0  0  0  0  0  0  0
   27.4257   11.2854    6.4340 C   0  0  1  0  0  0  0  0  0  0  0  0
   26.3758   10.6429    5.4757 C   0  0  2  0  0  0  0  0  0  0  0  0
   27.2620   10.1928    4.4804 O   0  0  0  0  0  0  0  0  0  0  0  0
   25.1839   11.4935    5.0343 C   0  0  0  0  0  0  0  0  0  0  0  0
   24.4597   11.8014    6.2105 O   0  0  0  0  0  0  0  0  0  0  0  0
   27.3789    9.4809    8.0969 C   0  0  2  0  0  0  0  0  0  0  0  0
   28.1347   10.2721    7.2806 O   0  0  0  0  0  0  0  0  0  0  0  0
   26.7016   10.2701    9.1783 C   0  0  1  0  0  0  0  0  0  0  0  0
   27.6016    5.2786   11.1987 N   0  0  0  0  0  0  0  0  0  0  0  0
   23.1773    9.2921   -0.5050 O   0  0  0  0  0  0  0  0  0  0  0  0
   25.8899    9.2898   10.1112 C   0  0  2  0  0  0  0  0  0  0  0  0
   26.7670    8.1572   10.7489 C   0  0  1  0  0  0  0  0  0  0  0  0
   27.3998    7.4065    9.6898 C   0  0  1  0  0  0  0  0  0  0  0  0
   28.1874    8.3274    8.7772 O   0  0  0  0  0  0  0  0  0  0  0  0
   28.3372    6.2708   10.2935 C   0  0  0  0  0  0  0  0  0  0  0  0
   27.6637   10.9297    9.9693 N   0  0  0  0  0  0  0  0  0  0  0  0
   34.8268   10.4411    3.2413 O   0  0  0  0  0  0  0  0  0  0  0  0
   23.3567   10.7043   -2.2751 C   0  0  0  0  0  0  0  0  0  0  0  0
   27.5800    8.6490   11.3929 O   0  0  0  0  0  0  0  0  0  0  0  0
   25.0890    8.7677    9.4715 O   0  0  0  0  0  0  0  0  0  0  0  0
   25.3999   10.1787   -1.2028 C   0  0  0  0  0  0  0  0  0  0  0  0
   22.3395   10.2123   -3.0621 C   0  0  0  0  0  0  0  0  0  0  0  0
   23.9315    9.6759   -1.6527 C   0  0  1  0  0  0  0  0  0  0  0  0
   35.2226    7.8458    2.7842 F   0  0  0  0  0  0  0  0  0  0  0  0
  1  2  1  6  0  0  0
  1 10  1  0  0  0  0
  1  3  1  0  0  0  0
  3  4  1  6  0  0  0
  3  6  1  0  0  0  0
  5 46  2  0  0  0  0
  6 42  1  1  0  0  0
  6  8  1  0  0  0  0
  7 47  1  0  0  0  0
  8  9  1  0  0  0  0
  8 49  1  1  0  0  0
  9 10  1  0  0  0  0
  9 11  1  1  0  0  0
 11 12  1  0  0  0  0
 13 14  1  1  0  0  0
 13 15  1  0  0  0  0
 13 21  1  0  0  0  0
 14 46  1  0  0  0  0
 15 16  1  0  0  0  0
 16 17  1  1  0  0  0
 16 18  1  0  0  0  0
 18  2  1  6  0  0  0
 18 19  1  0  0  0  0
 19 20  1  1  0  0  0
 19 21  1  0  0  0  0
 21 22  1  6  0  0  0
 23 20  1  6  0  0  0
 23 24  1  0  0  0  0
 23 28  1  0  0  0  0
 24 25  1  1  0  0  0
 24 26  1  0  0  0  0
 26 27  1  0  0  0  0
 26 32  1  6  0  0  0
 27 28  1  0  0  0  0
 27 29  1  6  0  0  0
 29 30  1  0  0  0  0
 31 32  1  1  0  0  0
 31 33  1  0  0  0  0
 31 39  1  0  0  0  0
 33 36  1  0  0  0  0
 33 41  1  1  0  0  0
 34 40  1  0  0  0  0
 35 48  1  0  0  0  0
 36 37  1  0  0  0  0
 36 45  1  6  0  0  0
 37 38  1  0  0  0  0
 37 44  1  1  0  0  0
 38 39  1  0  0  0  0
 38 40  1  1  0  0  0
 43 47  1  0  0  0  0
 46 48  1  0  0  0  0
 48 43  1  1  0  0  0
M  END
>  <CHROM.1>
-159.51497199,-88.06977414,-174.58730497,-151.24049124,-52.76641919,-168.27980496
-176.99299679,-62.68723371,-65.63679500,58.40842543,-177.87336249,-81.12828865
-130.96599530,28.43111175,9.45942338,3.88906492,-1.41428568,0.21095679,-1.51592079

>  <Name>
ligand

>  <RI>
0

>  <Rbt.Current_Directory>
/home/itssahil/PROJECTS/Mol_Feturizer/New_Systems/rnas/4PDQ

>  <Rbt.Executable>
rbdock ($Id: //depot/dev/client3/rdock/2013.1/src/exe/rbdock.cxx#4 $)

>  <Rbt.Library>
libRbt.so (2013.1, Build901 2013/11/27)

>  <Rbt.Parameter_File>
/export/apps/rDock/src/rDock_2013.1_src/data/scripts/dock_solv.prm

>  <Rbt.Receptor>
prm/pocket_docking_4.prm

>  <SCORE>
-6.67638

>  <SCORE.INTER>
1.08782

>  <SCORE.INTER.CONST>
1

>  <SCORE.INTER.POLAR>
0

>  <SCORE.INTER.ROT>
13

>  <SCORE.INTER.SOLV>
15.4089

>  <SCORE.INTER.VDW>
-16.6778

>  <SCORE.INTER.norm>
0.0222004

>  <SCORE.INTRA>
-7.76421

>  <SCORE.INTRA.DIHEDRAL>
-25.1258

>  <SCORE.INTRA.DIHEDRAL.0>
34.5115

>  <SCORE.INTRA.POLAR>
0

>  <SCORE.INTRA.POLAR.0>
0

>  <SCORE.INTRA.REPUL>
0.00152792

>  <SCORE.INTRA.REPUL.0>
0

>  <SCORE.INTRA.SOLV>
2.23228

>  <SCORE.INTRA.SOLV.lig_0>
-122.812

>  <SCORE.INTRA.VDW>
3.67491

>  <SCORE.INTRA.VDW.0>
-7.46208

>  <SCORE.INTRA.norm>
-0.158453

>  <SCORE.RESTR>
0

>  <SCORE.RESTR.CAVITY>
0

>  <SCORE.RESTR.norm>
0

>  <SCORE.SYSTEM>
0

>  <SCORE.SYSTEM.CONST>
0

>  <SCORE.SYSTEM.DIHEDRAL>
0

>  <SCORE.SYSTEM.SOLV>
0

>  <SCORE.SYSTEM.norm>
0

>  <SCORE.heavy>
49

>  <SCORE.norm>
-0.136253

>  <RMSD>
7.326

$$$$
ligand
 OpenBabel11021811513D
libRbt.so/2013.1/901 2013/11/27
 49 52  0  0  0  0  0  0  0  0999 V2000
   32.8841    9.6536    2.1301 C   0  0  2  0  0  0  0  0  0  0  0  0
   32.2968   10.3080    1.0443 O   0  0  0  0  0  0  0  0  0  0  0  0
   34.2758   10.3119    2.4572 C   0  0  2  0  0  0  0  0  0  0  0  0
   34.0683   11.7844    2.7750 N   0  0  0  0  0  0  0  0  0  0  0  0
   25.8234   12.4829    0.7198 O   0  0  0  0  0  0  0  0  0  0  0  0
   35.2529   10.1223    1.2734 C   0  0  2  0  0  0  0  0  0  0  0  0
   23.7224    8.4087   -0.1779 N   0  0  0  0  0  0  0  0  0  0  0  0
   35.4309    8.6287    0.9586 C   0  0  2  0  0  0  0  0  0  0  0  0
   34.0458    7.9289    0.6249 C   0  0  2  0  0  0  0  0  0  0  0  0
   33.0973    8.1879    1.7969 O   0  0  0  0  0  0  0  0  0  0  0  0
   34.2265    6.4058    0.3618 C   0  0  0  0  0  0  0  0  0  0  0  0
   34.6701    5.6767    1.4956 N   0  0  0  0  0  0  0  0  0  0  0  0
   28.3104   11.3625   -0.2971 C   0  0  2  0  0  0  0  0  0  0  0  0
   27.0132   11.2738   -1.0296 N   0  0  0  0  0  0  0  0  0  0  0  0
   29.4721   11.0520   -1.3603 C   0  0  0  0  0  0  0  0  0  0  0  0
   30.8851   11.1490   -0.6732 C   0  0  2  0  0  0  0  0  0  0  0  0
   31.9574   10.8467   -1.6327 N   0  0  0  0  0  0  0  0  0  0  0  0
   30.9824   10.1441    0.4919 C   0  0  2  0  0  0  0  0  0  0  0  0
   29.8465   10.4202    1.5580 C   0  0  2  0  0  0  0  0  0  0  0  0
   30.0297    9.4186    2.6269 O   0  0  0  0  0  0  0  0  0  0  0  0
   28.4098   10.2503    0.8448 C   0  0  1  0  0  0  0  0  0  0  0  0
   27.4249   10.4893    1.8000 O   0  0  0  0  0  0  0  0  0  0  0  0
   29.3857    9.3464    3.7418 C   0  0  1  0  0  0  0  0  0  0  0  0
   29.7898    8.1714    4.6802 C   0  0  2  0  0  0  0  0  0  0  0  0
   28.9766    7.0805    4.3828 O   0  0  0  0  0  0  0  0  0  0  0  0
   29.4263    8.7850    5.9684 C   0  0  1  0  0  0  0  0  0  0  0  0
   29.8187   10.2939    5.9161 C   0  0  2  0  0  0  0  0  0  0  0  0
   29.4656   10.5463    4.5781 O   0  0  0  0  0  0  0  0  0  0  0  0
   31.2249   10.6913    6.3673 C   0  0  0  0  0  0  0  0  0  0  0  0
   31.3036   10.3741    7.7442 O   0  0  0  0  0  0  0  0  0  0  0  0
   27.3890    8.9278    7.3295 C   0  0  2  0  0  0  0  0  0  0  0  0
   27.9520    8.5746    6.1371 O   0  0  0  0  0  0  0  0  0  0  0  0
   27.9316    8.1194    8.4710 C   0  0  1  0  0  0  0  0  0  0  0  0
   22.7925    9.5674    9.7290 N   0  0  0  0  0  0  0  0  0  0  0  0
   24.6353   12.5025   -2.4811 O   0  0  0  0  0  0  0  0  0  0  0  0
   27.2028    8.5430    9.8050 C   0  0  2  0  0  0  0  0  0  0  0  0
   25.6428    8.3970    9.7438 C   0  0  1  0  0  0  0  0  0  0  0  0
   25.1438    9.1905    8.6451 C   0  0  1  0  0  0  0  0  0  0  0  0
   25.8298    8.8024    7.3490 O   0  0  0  0  0  0  0  0  0  0  0  0
   23.5648    9.0372    8.5176 C   0  0  0  0  0  0  0  0  0  0  0  0
   27.6830    6.7493    8.2534 N   0  0  0  0  0  0  0  0  0  0  0  0
   36.2664   10.5719    1.5509 O   0  0  0  0  0  0  0  0  0  0  0  0
   24.4003   10.4329   -1.5748 C   0  0  0  0  0  0  0  0  0  0  0  0
   25.3904    7.2941    9.5504 O   0  0  0  0  0  0  0  0  0  0  0  0
   27.4239    9.6556    9.9961 O   0  0  0  0  0  0  0  0  0  0  0  0
   25.8182   11.8972   -0.3723 C   0  0  0  0  0  0  0  0  0  0  0  0
   23.9300    9.7845   -0.4547 C   0  0  0  0  0  0  0  0  0  0  0  0
   24.4984   11.7308   -1.2899 C   0  0  1  0  0  0  0  0  0  0  0  0
   35.9991    7.9706    2.0637 F   0  0  0  0  0  0  0  0  0  0  0  0
  1  2  1  6  0  0  0
  1 10  1  0  0  0  0
  1  3  1  0  0  0  0
  3  4  1  6  0  0  0
  3  6  1  0  0  0  0
  5 46  2  0  0  0  0
  6 42  1  1  0  0  0
  6  8  1  0  0  0  0
  7 47  1  0  0  0  0
  8  9  1  0  0  0  0
  8 49  1  1  0  0  0
  9 10  1  0  0  0  0
  9 11  1  1  0  0  0
 11 12  1  0  0  0  0
 13 14  1  6  0  0  0
 13 15  1  0  0  0  0
 13 21  1  0  0  0  0
 14 46  1  0  0  0  0
 15 16  1  0  0  0  0
 16 17  1  6  0  0  0
 16 18  1  0  0  0  0
 18  2  1  1  0  0  0
 18 19  1  0  0  0  0
 19 20  1  1  0  0  0
 19 21  1  0  0  0  0
 21 22  1  1  0  0  0
 23 20  1  6  0  0  0
 23 24  1  0  0  0  0
 23 28  1  0  0  0  0
 24 25  1  6  0  0  0
 24 26  1  0  0  0  0
 26 27  1  0  0  0  0
 26 32  1  6  0  0  0
 27 28  1  0  0  0  0
 27 29  1  6  0  0  0
 29 30  1  0  0  0  0
 31 32  1  6  0  0  0
 31 33  1  0  0  0  0
 31 39  1  0  0  0  0
 33 36  1  0  0  0  0
 33 41  1  6  0  0  0
 34 40  1  0  0  0  0
 35 48  1  0  0  0  0
 36 37  1  0  0  0  0
 36 45  1  6  0  0  0
 37 38  1  0  0  0  0
 37 44  1  6  0  0  0
 38 39  1  0  0  0  0
 38 40  1  6  0  0  0
 43 47  1  0  0  0  0
 46 48  1  0  0  0  0
 48 43  1  6  0  0  0
M  END
>  <CHROM.1>
-172.82753774,178.85050199,64.84186794,-162.93430339,174.21989582,179.70160692
173.03307824,-64.22467670,-63.11638634,63.75218040,-175.44576882,-164.65458387
111.87650779,29.27646233,9.56669431,3.33143457,-0.81801031,-0.14612894,1.81118098

>  <Name>
ligand

>  <RI>
0

>  <Rbt.Current_Directory>
/home/itssahil/PROJECTS/Mol_Feturizer/New_Systems/rnas/4PDQ

>  <Rbt.Executable>
rbdock ($Id: //depot/dev/client3/rdock/2013.1/src/exe/rbdock.cxx#4 $)

>  <Rbt.Library>
libRbt.so (2013.1, Build901 2013/11/27)

>  <Rbt.Parameter_File>
/export/apps/rDock/src/rDock_2013.1_src/data/scripts/dock_solv.prm

>  <Rbt.Receptor>
prm/pocket_docking_4.prm

>  <SCORE>
-13.905

>  <SCORE.INTER>
0.166556

>  <SCORE.INTER.CONST>
1

>  <SCORE.INTER.POLAR>
0

>  <SCORE.INTER.ROT>
13

>  <SCORE.INTER.SOLV>
30.1857

>  <SCORE.INTER.VDW>
-22.2175

>  <SCORE.INTER.norm>
0.0033991

>  <SCORE.INTRA>
-14.0806

>  <SCORE.INTRA.DIHEDRAL>
-31.5586

>  <SCORE.INTRA.DIHEDRAL.0>
34.5115

>  <SCORE.INTRA.POLAR>
0

>  <SCORE.INTRA.POLAR.0>
0

>  <SCORE.INTRA.REPUL>
0

>  <SCORE.INTRA.REPUL.0>
0

>  <SCORE.INTRA.SOLV>
-2.18508

>  <SCORE.INTRA.SOLV.lig_0>
-122.812

>  <SCORE.INTRA.VDW>
2.79129

>  <SCORE.INTRA.VDW.0>
-7.46208

>  <SCORE.INTRA.norm>
-0.287358

>  <SCORE.RESTR>
0.00899606

>  <SCORE.RESTR.CAVITY>
0.00899606

>  <SCORE.RESTR.norm>
0.000183593

>  <SCORE.SYSTEM>
0

>  <SCORE.SYSTEM.CONST>
0

>  <SCORE.SYSTEM.DIHEDRAL>
0

>  <SCORE.SYSTEM.SOLV>
0

>  <SCORE.SYSTEM.norm>
0

>  <SCORE.heavy>
49

>  <SCORE.norm>
-0.283775

>  <RMSD>
7.328

$$$$
ligand
 OpenBabel11021811513D
libRbt.so/2013.1/901 2013/11/27
 49 52  0  0  0  0  0  0  0  0999 V2000
   32.8158   10.7498    0.8293 C   0  0  2  0  0  0  0  0  0  0  0  0
   31.7935    9.8399    0.5484 O   0  0  0  0  0  0  0  0  0  0  0  0
   34.2041   10.0083    0.8191 C   0  0  2  0  0  0  0  0  0  0  0  0
   34.4200    9.3733   -0.5457 N   0  0  0  0  0  0  0  0  0  0  0  0
   26.1497   10.0628   -0.6832 O   0  0  0  0  0  0  0  0  0  0  0  0
   34.2591    8.9524    1.9478 C   0  0  2  0  0  0  0  0  0  0  0  0
   24.6442   13.6559   -3.9828 N   0  0  0  0  0  0  0  0  0  0  0  0
   34.0187    9.6142    3.3138 C   0  0  2  0  0  0  0  0  0  0  0  0
   32.6263   10.3750    3.3617 C   0  0  2  0  0  0  0  0  0  0  0  0
   32.5963   11.3680    2.1984 O   0  0  0  0  0  0  0  0  0  0  0  0
   32.4147   11.0890    4.7282 C   0  0  0  0  0  0  0  0  0  0  0  0
   31.2097   11.8347    4.8049 N   0  0  0  0  0  0  0  0  0  0  0  0
   28.2875   12.0377   -0.7481 C   0  0  2  0  0  0  0  0  0  0  0  0
   26.9189   12.2956   -1.2843 N   0  0  0  0  0  0  0  0  0  0  0  0
   28.9742   10.9558   -1.7147 C   0  0  0  0  0  0  0  0  0  0  0  0
   30.4398   10.6418   -1.2334 C   0  0  2  0  0  0  0  0  0  0  0  0
   31.0728    9.6363   -2.0995 N   0  0  0  0  0  0  0  0  0  0  0  0
   30.4228   10.0953    0.2082 C   0  0  2  0  0  0  0  0  0  0  0  0
   29.7472   11.1378    1.1879 C   0  0  2  0  0  0  0  0  0  0  0  0
   29.7868   10.5285    2.5320 O   0  0  0  0  0  0  0  0  0  0  0  0
   28.2275   11.3919    0.7113 C   0  0  1  0  0  0  0  0  0  0  0  0
   27.6486   12.3048    1.5895 O   0  0  0  0  0  0  0  0  0  0  0  0
   28.8065    9.9790    3.1644 C   0  0  1  0  0  0  0  0  0  0  0  0
   28.8110    8.4222    3.1957 C   0  0  2  0  0  0  0  0  0  0  0  0
   28.0837    7.9651    2.0994 O   0  0  0  0  0  0  0  0  0  0  0  0
   28.0752    8.2263    4.4559 C   0  0  1  0  0  0  0  0  0  0  0  0
   28.5452    9.3166    5.4677 C   0  0  2  0  0  0  0  0  0  0  0  0
   28.6705   10.3875    4.5645 O   0  0  0  0  0  0  0  0  0  0  0  0
   29.7417    9.0011    6.3665 C   0  0  0  0  0  0  0  0  0  0  0  0
   29.8129   10.0497    7.3141 O   0  0  0  0  0  0  0  0  0  0  0  0
   25.7129    8.0503    5.0979 C   0  0  2  0  0  0  0  0  0  0  0  0
   26.6192    8.3375    4.1183 O   0  0  0  0  0  0  0  0  0  0  0  0
   24.4223    8.7914    4.9074 C   0  0  1  0  0  0  0  0  0  0  0  0
   27.2204    7.5887    9.3639 N   0  0  0  0  0  0  0  0  0  0  0  0
   23.4526   10.8782   -1.1495 O   0  0  0  0  0  0  0  0  0  0  0  0
   23.4440    8.4529    6.0984 C   0  0  2  0  0  0  0  0  0  0  0  0
   24.0391    8.7754    7.5129 C   0  0  1  0  0  0  0  0  0  0  0  0
   25.2736    8.0441    7.6762 C   0  0  1  0  0  0  0  0  0  0  0  0
   26.2328    8.3521    6.5421 O   0  0  0  0  0  0  0  0  0  0  0  0
   25.9370    8.3760    9.0844 C   0  0  0  0  0  0  0  0  0  0  0  0
   24.6577   10.1810    4.9167 N   0  0  0  0  0  0  0  0  0  0  0  0
   35.2893    8.4575    1.9455 O   0  0  0  0  0  0  0  0  0  0  0  0
   24.3688   12.9165   -1.5568 C   0  0  0  0  0  0  0  0  0  0  0  0
   24.2637    9.8999    7.5626 O   0  0  0  0  0  0  0  0  0  0  0  0
   23.2327    7.3224    6.0780 O   0  0  0  0  0  0  0  0  0  0  0  0
   25.9272   11.1754   -1.1814 C   0  0  0  0  0  0  0  0  0  0  0  0
   23.9880   13.5251   -2.7318 C   0  0  0  0  0  0  0  0  0  0  0  0
   24.4949   11.6107   -1.7901 C   0  0  1  0  0  0  0  0  0  0  0  0
   35.0368   10.5470    3.5800 F   0  0  0  0  0  0  0  0  0  0  0  0
  1  2  1  1  0  0  0
  1 10  1  0  0  0  0
  1  3  1  0  0  0  0
  3  4  1  6  0  0  0
  3  6  1  0  0  0  0
  5 46  2  0  0  0  0
  6 42  1  1  0  0  0
  6  8  1  0  0  0  0
  7 47  1  0  0  0  0
  8  9  1  0  0  0  0
  8 49  1  6  0  0  0
  9 10  1  0  0  0  0
  9 11  1  1  0  0  0
 11 12  1  0  0  0  0
 13 14  1  6  0  0  0
 13 15  1  0  0  0  0
 13 21  1  0  0  0  0
 14 46  1  0  0  0  0
 15 16  1  0  0  0  0
 16 17  1  6  0  0  0
 16 18  1  0  0  0  0
 18  2  1  1  0  0  0
 18 19  1  0  0  0  0
 19 20  1  1  0  0  0
 19 21  1  0  0  0  0
 21 22  1  1  0  0  0
 23 20  1  1  0  0  0
 23 24  1  0  0  0  0
 23 28  1  0  0  0  0
 24 25  1  6  0  0  0
 24 26  1  0  0  0  0
 26 27  1  0  0  0  0
 26 32  1  6  0  0  0
 27 28  1  0  0  0  0
 27 29  1  6  0  0  0
 29 30  1  0  0  0  0
 31 32  1  6  0  0  0
 31 33  1  0  0  0  0
 31 39  1  0  0  0  0
 33 36  1  0  0  0  0
 33 41  1  1  0  0  0
 34 40  1  0  0  0  0
 35 48  1  0  0  0  0
 36 37  1  0  0  0  0
 36 45  1  1  0  0  0
 37 38  1  0  0  0  0
 37 44  1  6  0  0  0
 38 39  1  0  0  0  0
 38 40  1  1  0  0  0
 43 47  1  0  0  0  0
 46 48  1  0  0  0  0
 48 43  1  1  0  0  0
M  END
>  <CHROM.1>
-167.03972465,72.54890990,177.38828659,68.55586066,-103.48473022,103.66612178
173.11942686,-170.77952757,152.27694424,177.29472918,-63.73562648,-109.60281373
26.97134450,28.53596506,10.04790231,2.67314875,-0.76330496,-0.03995303,1.90615737

>  <Name>
ligand

>  <RI>
0

>  <Rbt.Current_Directory>
/home/itssahil/PROJECTS/Mol_Feturizer/New_Systems/rnas/4PDQ

>  <Rbt.Executable>
rbdock ($Id: //depot/dev/client3/rdock/2013.1/src/exe/rbdock.cxx#4 $)

>  <Rbt.Library>
libRbt.so (2013.1, Build901 2013/11/27)

>  <Rbt.Parameter_File>
/export/apps/rDock/src/rDock_2013.1_src/data/scripts/dock_solv.prm

>  <Rbt.Receptor>
prm/pocket_docking_3.prm

>  <SCORE>
-0.0499231

>  <SCORE.INTER>
0.416195

>  <SCORE.INTER.CONST>
1

>  <SCORE.INTER.POLAR>
0

>  <SCORE.INTER.ROT>
13

>  <SCORE.INTER.SOLV>
20.5146

>  <SCORE.INTER.VDW>
-18.8274

>  <SCORE.INTER.norm>
0.00849377

>  <SCORE.INTRA>
-0.552853

>  <SCORE.INTRA.DIHEDRAL>
-10.9121

>  <SCORE.INTRA.DIHEDRAL.0>
34.5115

>  <SCORE.INTRA.POLAR>
0

>  <SCORE.INTRA.POLAR.0>
0

>  <SCORE.INTRA.REPUL>
0.133568

>  <SCORE.INTRA.REPUL.0>
0

>  <SCORE.INTRA.SOLV>
4.697

>  <SCORE.INTRA.SOLV.lig_0>
-122.812

>  <SCORE.INTRA.VDW>
1.88686

>  <SCORE.INTRA.VDW.0>
-7.46208

>  <SCORE.INTRA.norm>
-0.0112827

>  <SCORE.RESTR>
0.086735

>  <SCORE.RESTR.CAVITY>
0.086735

>  <SCORE.RESTR.norm>
0.0017701

>  <SCORE.SYSTEM>
0

>  <SCORE.SYSTEM.CONST>
0

>  <SCORE.SYSTEM.DIHEDRAL>
0

>  <SCORE.SYSTEM.SOLV>
0

>  <SCORE.SYSTEM.norm>
0

>  <SCORE.heavy>
49

>  <SCORE.norm>
-0.00101884

>  <RMSD>
7.332

$$$$
ligand
 OpenBabel11021811513D
libRbt.so/2013.1/901 2013/11/27
 49 52  0  0  0  0  0  0  0  0999 V2000
   28.6839   10.8039    5.1508 C   0  0  2  0  0  0  0  0  0  0  0  0
   30.0671   10.7269    4.9694 O   0  0  0  0  0  0  0  0  0  0  0  0
   28.3372   12.0289    6.0762 C   0  0  2  0  0  0  0  0  0  0  0  0
   28.8590   13.3037    5.4318 N   0  0  0  0  0  0  0  0  0  0  0  0
   35.9728    9.4989    2.1674 O   0  0  0  0  0  0  0  0  0  0  0  0
   28.9356   11.8243    7.4875 C   0  0  2  0  0  0  0  0  0  0  0  0
   38.3021    8.7879   -0.6042 N   0  0  0  0  0  0  0  0  0  0  0  0
   28.4096   10.5211    8.1095 C   0  0  2  0  0  0  0  0  0  0  0  0
   28.7394    9.2613    7.2019 C   0  0  2  0  0  0  0  0  0  0  0  0
   28.1765    9.5316    5.8053 O   0  0  0  0  0  0  0  0  0  0  0  0
   28.1556    7.9533    7.8101 C   0  0  0  0  0  0  0  0  0  0  0  0
   28.4867    6.7832    7.0785 N   0  0  0  0  0  0  0  0  0  0  0  0
   33.0947    9.0927    2.3302 C   0  0  2  0  0  0  0  0  0  0  0  0
   34.0275    8.1019    1.7176 N   0  0  0  0  0  0  0  0  0  0  0  0
   33.2406    8.9526    3.9225 C   0  0  0  0  0  0  0  0  0  0  0  0
   32.3031    9.9855    4.6523 C   0  0  2  0  0  0  0  0  0  0  0  0
   32.4127    9.8532    6.1126 N   0  0  0  0  0  0  0  0  0  0  0  0
   30.8329    9.7458    4.2548 C   0  0  2  0  0  0  0  0  0  0  0  0
   30.6550    9.8726    2.6879 C   0  0  2  0  0  0  0  0  0  0  0  0
   29.2239    9.6356    2.4133 O   0  0  0  0  0  0  0  0  0  0  0  0
   31.5752    8.7613    1.9671 C   0  0  1  0  0  0  0  0  0  0  0  0
   31.3987    8.8839    0.5911 O   0  0  0  0  0  0  0  0  0  0  0  0
   28.5442   10.0702    1.4074 C   0  0  1  0  0  0  0  0  0  0  0  0
   28.3490   11.6136    1.3404 C   0  0  2  0  0  0  0  0  0  0  0  0
   27.1672   11.9297    2.0063 O   0  0  0  0  0  0  0  0  0  0  0  0
   28.2048   11.7531   -0.1183 C   0  0  1  0  0  0  0  0  0  0  0  0
   29.2071   10.7723   -0.8017 C   0  0  2  0  0  0  0  0  0  0  0  0
   29.0783    9.6968    0.0955 O   0  0  0  0  0  0  0  0  0  0  0  0
   30.6177   11.2775   -1.1081 C   0  0  0  0  0  0  0  0  0  0  0  0
   31.1625   11.7043    0.1263 O   0  0  0  0  0  0  0  0  0  0  0  0
   26.3556   10.1466   -0.2700 C   0  0  2  0  0  0  0  0  0  0  0  0
   26.7749   11.4351   -0.4352 O   0  0  0  0  0  0  0  0  0  0  0  0
   25.2325    9.7950   -1.2007 C   0  0  1  0  0  0  0  0  0  0  0  0
   24.8811    6.7319    3.3805 N   0  0  0  0  0  0  0  0  0  0  0  0
   35.9161    6.0127    1.4881 O   0  0  0  0  0  0  0  0  0  0  0  0
   24.7654    8.3139   -0.9209 C   0  0  2  0  0  0  0  0  0  0  0  0
   24.3253    8.0624    0.5630 C   0  0  1  0  0  0  0  0  0  0  0  0
   25.4243    8.3980    1.4377 C   0  0  1  0  0  0  0  0  0  0  0  0
   25.8931    9.8190    1.1880 O   0  0  0  0  0  0  0  0  0  0  0  0
   25.0068    8.1992    2.9606 C   0  0  0  0  0  0  0  0  0  0  0  0
   24.1343   10.6494   -0.9764 N   0  0  0  0  0  0  0  0  0  0  0  0
   28.6363   12.7056    8.1508 O   0  0  0  0  0  0  0  0  0  0  0  0
   36.1853    7.3987   -0.2913 C   0  0  0  0  0  0  0  0  0  0  0  0
   23.4386    8.7520    0.7989 O   0  0  0  0  0  0  0  0  0  0  0  0
   25.6544    7.6132   -1.1258 O   0  0  0  0  0  0  0  0  0  0  0  0
   35.4842    8.4579    1.7055 C   0  0  0  0  0  0  0  0  0  0  0  0
   36.9241    8.4747   -0.7301 C   0  0  0  0  0  0  0  0  0  0  0  0
   36.3627    7.2850    1.0244 C   0  0  1  0  0  0  0  0  0  0  0  0
   27.0142   10.5945    8.2666 F   0  0  0  0  0  0  0  0  0  0  0  0
  1  2  1  1  0  0  0
  1 10  1  0  0  0  0
  1  3  1  0  0  0  0
  3  4  1  6  0  0  0
  3  6  1  0  0  0  0
  5 46  2  0  0  0  0
  6 42  1  1  0  0  0
  6  8  1  0  0  0  0
  7 47  1  0  0  0  0
  8  9  1  0  0  0  0
  8 49  1  6  0  0  0
  9 10  1  0  0  0  0
  9 11  1  1  0  0  0
 11 12  1  0  0  0  0
 13 14  1  6  0  0  0
 13 15  1  0  0  0  0
 13 21  1  0  0  0  0
 14 46  1  0  0  0  0
 15 16  1  0  0  0  0
 16 17  1  1  0  0  0
 16 18  1  0  0  0  0
 18  2  1  1  0  0  0
 18 19  1  0  0  0  0
 19 20  1  1  0  0  0
 19 21  1  0  0  0  0
 21 22  1  6  0  0  0
 23 20  1  1  0  0  0
 23 24  1  0  0  0  0
 23 28  1  0  0  0  0
 24 25  1  1  0  0  0
 24 26  1  0  0  0  0
 26 27  1  0  0  0  0
 26 32  1  1  0  0  0
 27 28  1  0  0  0  0
 27 29  1  1  0  0  0
 29 30  1  0  0  0  0
 31 32  1  1  0  0  0
 31 33  1  0  0  0  0
 31 39  1  0  0  0  0
 33 36  1  0  0  0  0
 33 41  1  1  0  0  0
 34 40  1  0  0  0  0
 35 48  1  0  0  0  0
 36 37  1  0  0  0  0
 36 45  1  1  0  0  0
 37 38  1  0  0  0  0
 37 44  1  1  0  0  0
 38 39  1  0  0  0  0
 38 40  1  1  0  0  0
 43 47  1  0  0  0  0
 46 48  1  0  0  0  0
 48 43  1  6  0  0  0
M  END
>  <CHROM.1>
177.06456859,-167.65492013,-176.57380438,-76.98814120,154.21001356,-66.17102134
-68.44419103,57.31934387,-151.41673455,72.28724891,55.28017361,-165.08742643
136.00096185,29.57229626,9.63524675,2.57689826,-2.98657506,0.10719948,-1.70795238

>  <Name>
ligand

>  <RI>
0

>  <Rbt.Current_Directory>
/home/itssahil/PROJECTS/Mol_Feturizer/New_Systems/rnas/4PDQ

>  <Rbt.Executable>
rbdock ($Id: //depot/dev/client3/rdock/2013.1/src/exe/rbdock.cxx#4 $)

>  <Rbt.Library>
libRbt.so (2013.1, Build901 2013/11/27)

>  <Rbt.Parameter_File>
/export/apps/rDock/src/rDock_2013.1_src/data/scripts/dock_solv.prm

>  <Rbt.Receptor>
prm/pocket_docking_4.prm

>  <SCORE>
-10.6777

>  <SCORE.INTER>
-2.79523

>  <SCORE.INTER.CONST>
1

>  <SCORE.INTER.POLAR>
0

>  <SCORE.INTER.ROT>
13

>  <SCORE.INTER.SOLV>
21.5134

>  <SCORE.INTER.VDW>
-21.3013

>  <SCORE.INTER.norm>
-0.0570456

>  <SCORE.INTRA>
-7.92347

>  <SCORE.INTRA.DIHEDRAL>
-24.2864

>  <SCORE.INTRA.DIHEDRAL.0>
34.5115

>  <SCORE.INTRA.POLAR>
0

>  <SCORE.INTRA.POLAR.0>
0

>  <SCORE.INTRA.REPUL>
0

>  <SCORE.INTRA.REPUL.0>
0

>  <SCORE.INTRA.SOLV>
0.00581732

>  <SCORE.INTRA.SOLV.lig_0>
-122.812

>  <SCORE.INTRA.VDW>
4.21682

>  <SCORE.INTRA.VDW.0>
-7.46208

>  <SCORE.INTRA.norm>
-0.161704

>  <SCORE.RESTR>
0.0410363

>  <SCORE.RESTR.CAVITY>
0.0410363

>  <SCORE.RESTR.norm>
0.000837476

>  <SCORE.SYSTEM>
0

>  <SCORE.SYSTEM.CONST>
0

>  <SCORE.SYSTEM.DIHEDRAL>
0

>  <SCORE.SYSTEM.SOLV>
0

>  <SCORE.SYSTEM.norm>
0

>  <SCORE.heavy>
49

>  <SCORE.norm>
-0.217912

>  <RMSD>
7.348

$$$$
ligand
 OpenBabel11021811513D
libRbt.so/2013.1/901 2013/11/27
 49 52  0  0  0  0  0  0  0  0999 V2000
   26.9002    4.7407    7.1543 C   0  0  2  0  0  0  0  0  0  0  0  0
   27.0375    6.1146    6.9409 O   0  0  0  0  0  0  0  0  0  0  0  0
   25.4739    4.4352    7.7454 C   0  0  2  0  0  0  0  0  0  0  0  0
   24.4148    4.9287    6.7722 N   0  0  0  0  0  0  0  0  0  0  0  0
   32.9742    5.4339    3.7301 O   0  0  0  0  0  0  0  0  0  0  0  0
   25.3142    5.0945    9.1353 C   0  0  2  0  0  0  0  0  0  0  0  0
   32.8635   10.2203    3.3251 N   0  0  0  0  0  0  0  0  0  0  0  0
   26.4064    4.5957   10.0944 C   0  0  2  0  0  0  0  0  0  0  0  0
   27.8616    4.8851    9.5301 C   0  0  2  0  0  0  0  0  0  0  0  0
   27.9545    4.2618    8.1361 O   0  0  0  0  0  0  0  0  0  0  0  0
   28.9614    4.3279   10.4796 C   0  0  0  0  0  0  0  0  0  0  0  0
   28.8135    4.7367   11.8306 N   0  0  0  0  0  0  0  0  0  0  0  0
   31.0079    6.8374    5.3545 C   0  0  2  0  0  0  0  0  0  0  0  0
   32.1252    7.5268    4.6451 N   0  0  0  0  0  0  0  0  0  0  0  0
   29.7208    6.9245    4.3994 C   0  0  0  0  0  0  0  0  0  0  0  0
   28.4939    6.1956    5.0640 C   0  0  2  0  0  0  0  0  0  0  0  0
   27.3024    6.2860    4.2073 N   0  0  0  0  0  0  0  0  0  0  0  0
   28.1611    6.8422    6.4235 C   0  0  2  0  0  0  0  0  0  0  0  0
   29.4126    6.7768    7.3892 C   0  0  2  0  0  0  0  0  0  0  0  0
   28.9921    7.4093    8.6551 O   0  0  0  0  0  0  0  0  0  0  0  0
   30.6342    7.5858    6.7150 C   0  0  1  0  0  0  0  0  0  0  0  0
   31.7219    7.5232    7.5825 O   0  0  0  0  0  0  0  0  0  0  0  0
   28.5124    8.5965    8.8079 C   0  0  1  0  0  0  0  0  0  0  0  0
   29.3125    9.7417    8.1202 C   0  0  2  0  0  0  0  0  0  0  0  0
   30.2438   10.2286    9.0342 O   0  0  0  0  0  0  0  0  0  0  0  0
   28.2051   10.6902    7.9153 C   0  0  1  0  0  0  0  0  0  0  0  0
   26.9381    9.8772    7.5064 C   0  0  2  0  0  0  0  0  0  0  0  0
   27.1322    8.7671    8.3481 O   0  0  0  0  0  0  0  0  0  0  0  0
   26.6999    9.6091    6.0197 C   0  0  0  0  0  0  0  0  0  0  0  0
   26.6280   10.8769    5.3950 O   0  0  0  0  0  0  0  0  0  0  0  0
   27.1077   12.4289    9.2555 C   0  0  2  0  0  0  0  0  0  0  0  0
   28.0304   11.4239    9.2105 O   0  0  0  0  0  0  0  0  0  0  0  0
   27.2277   13.2495   10.5059 C   0  0  1  0  0  0  0  0  0  0  0  0
   21.9929   13.3841    8.8262 N   0  0  0  0  0  0  0  0  0  0  0  0
   35.2845    6.7182    2.7275 O   0  0  0  0  0  0  0  0  0  0  0  0
   26.1026   14.3559   10.5156 C   0  0  2  0  0  0  0  0  0  0  0  0
   24.6500   13.7775   10.3961 C   0  0  1  0  0  0  0  0  0  0  0  0
   24.5565   13.0010    9.1821 C   0  0  1  0  0  0  0  0  0  0  0  0
   25.6292   11.9290    9.1479 O   0  0  0  0  0  0  0  0  0  0  0  0
   23.1080   12.3568    9.0414 C   0  0  0  0  0  0  0  0  0  0  0  0
   27.0462   12.4317   11.6393 N   0  0  0  0  0  0  0  0  0  0  0  0
   24.2881    4.8248    9.5603 O   0  0  0  0  0  0  0  0  0  0  0  0
   33.6260    8.1286    2.0794 C   0  0  0  0  0  0  0  0  0  0  0  0
   24.4606   13.0879   11.2940 O   0  0  0  0  0  0  0  0  0  0  0  0
   26.2633   15.0381    9.6035 O   0  0  0  0  0  0  0  0  0  0  0  0
   33.0597    6.6643    3.8503 C   0  0  0  0  0  0  0  0  0  0  0  0
   33.5431    9.4814    2.3227 C   0  0  0  0  0  0  0  0  0  0  0  0
   34.2029    7.5540    3.1340 C   0  0  1  0  0  0  0  0  0  0  0  0
   26.2787    3.2085   10.2858 F   0  0  0  0  0  0  0  0  0  0  0  0
  1  2  1  1  0  0  0
  1 10  1  0  0  0  0
  1  3  1  0  0  0  0
  3  4  1  6  0  0  0
  3  6  1  0  0  0  0
  5 46  2  0  0  0  0
  6 42  1  1  0  0  0
  6  8  1  0  0  0  0
  7 47  1  0  0  0  0
  8  9  1  0  0  0  0
  8 49  1  6  0  0  0
  9 10  1  0  0  0  0
  9 11  1  1  0  0  0
 11 12  1  0  0  0  0
 13 14  1  6  0  0  0
 13 15  1  0  0  0  0
 13 21  1  0  0  0  0
 14 46  1  0  0  0  0
 15 16  1  0  0  0  0
 16 17  1  6  0  0  0
 16 18  1  0  0  0  0
 18  2  1  1  0  0  0
 18 19  1  0  0  0  0
 19 20  1  1  0  0  0
 19 21  1  0  0  0  0
 21 22  1  1  0  0  0
 23 20  1  6  0  0  0
 23 24  1  0  0  0  0
 23 28  1  0  0  0  0
 24 25  1  1  0  0  0
 24 26  1  0  0  0  0
 26 27  1  0  0  0  0
 26 32  1  1  0  0  0
 27 28  1  0  0  0  0
 27 29  1  6  0  0  0
 29 30  1  0  0  0  0
 31 32  1  1  0  0  0
 31 33  1  0  0  0  0
 31 39  1  0  0  0  0
 33 36  1  0  0  0  0
 33 41  1  1  0  0  0
 34 40  1  0  0  0  0
 35 48  1  0  0  0  0
 36 37  1  0  0  0  0
 36 45  1  6  0  0  0
 37 38  1  0  0  0  0
 37 44  1  1  0  0  0
 38 39  1  0  0  0  0
 38 40  1  1  0  0  0
 43 47  1  0  0  0  0
 46 48  1  0  0  0  0
 48 43  1  6  0  0  0
M  END
>  <CHROM.1>
179.75966025,54.87536188,-51.57031702,-95.59129233,-55.98422152,-49.10498185
176.04570400,-58.48039743,-168.53740452,66.83697144,-61.98523942,-129.19465970
-18.05876421,28.20606602,8.45102203,7.55926200,0.54912922,-0.67616944,3.13139206

>  <Name>
ligand

>  <RI>
0

>  <Rbt.Current_Directory>
/home/itssahil/PROJECTS/Mol_Feturizer/New_Systems/rnas/4PDQ

>  <Rbt.Executable>
rbdock ($Id: //depot/dev/client3/rdock/2013.1/src/exe/rbdock.cxx#4 $)

>  <Rbt.Library>
libRbt.so (2013.1, Build901 2013/11/27)

>  <Rbt.Parameter_File>
/export/apps/rDock/src/rDock_2013.1_src/data/scripts/dock_solv.prm

>  <Rbt.Receptor>
prm/pocket_docking_6.prm

>  <SCORE>
-11.5607

>  <SCORE.INTER>
0.432551

>  <SCORE.INTER.CONST>
1

>  <SCORE.INTER.POLAR>
0

>  <SCORE.INTER.ROT>
13

>  <SCORE.INTER.SOLV>
18.075

>  <SCORE.INTER.VDW>
-18.0033

>  <SCORE.INTER.norm>
0.00882757

>  <SCORE.INTRA>
-11.9933

>  <SCORE.INTRA.DIHEDRAL>
-25.7665

>  <SCORE.INTRA.DIHEDRAL.0>
34.5115

>  <SCORE.INTRA.POLAR>
0

>  <SCORE.INTRA.POLAR.0>
0

>  <SCORE.INTRA.REPUL>
0

>  <SCORE.INTRA.REPUL.0>
0

>  <SCORE.INTRA.SOLV>
0.298585

>  <SCORE.INTRA.SOLV.lig_0>
-122.812

>  <SCORE.INTRA.VDW>
0.740677

>  <SCORE.INTRA.VDW.0>
-7.46208

>  <SCORE.INTRA.norm>
-0.244761

>  <SCORE.RESTR>
0

>  <SCORE.RESTR.CAVITY>
0

>  <SCORE.RESTR.norm>
0

>  <SCORE.SYSTEM>
0

>  <SCORE.SYSTEM.CONST>
0

>  <SCORE.SYSTEM.DIHEDRAL>
0

>  <SCORE.SYSTEM.SOLV>
0

>  <SCORE.SYSTEM.norm>
0

>  <SCORE.heavy>
49

>  <SCORE.norm>
-0.235933

>  <RMSD>
7.354

$$$$
ligand
 OpenBabel11021811513D
libRbt.so/2013.1/901 2013/11/27
 49 52  0  0  0  0  0  0  0  0999 V2000
   29.6631    5.8684    1.1373 C   0  0  2  0  0  0  0  0  0  0  0  0
   28.4644    6.0877    1.8208 O   0  0  0  0  0  0  0  0  0  0  0  0
   30.4173    4.6398    1.7688 C   0  0  2  0  0  0  0  0  0  0  0  0
   29.5262    3.4105    1.6836 N   0  0  0  0  0  0  0  0  0  0  0  0
   26.6643   11.9395   -1.2863 O   0  0  0  0  0  0  0  0  0  0  0  0
   30.8171    4.9467    3.2309 C   0  0  2  0  0  0  0  0  0  0  0  0
   21.7677   11.7201   -4.2013 N   0  0  0  0  0  0  0  0  0  0  0  0
   31.6999    6.2030    3.2933 C   0  0  2  0  0  0  0  0  0  0  0  0
   30.9723    7.4650    2.6627 C   0  0  2  0  0  0  0  0  0  0  0  0
   30.5489    7.0971    1.2394 O   0  0  0  0  0  0  0  0  0  0  0  0
   31.8927    8.7196    2.6789 C   0  0  0  0  0  0  0  0  0  0  0  0
   32.3484    9.0798    3.9737 N   0  0  0  0  0  0  0  0  0  0  0  0
   26.3151    9.2541   -0.2181 C   0  0  2  0  0  0  0  0  0  0  0  0
   25.1769   10.1172   -0.6500 N   0  0  0  0  0  0  0  0  0  0  0  0
   25.8164    7.7320   -0.3237 C   0  0  0  0  0  0  0  0  0  0  0  0
   26.9708    6.7462    0.0929 C   0  0  2  0  0  0  0  0  0  0  0  0
   26.5197    5.3487    0.0197 N   0  0  0  0  0  0  0  0  0  0  0  0
   27.4217    7.0328    1.5391 C   0  0  2  0  0  0  0  0  0  0  0  0
   27.9164    8.5290    1.6790 C   0  0  2  0  0  0  0  0  0  0  0  0
   28.3298    8.6985    3.0860 O   0  0  0  0  0  0  0  0  0  0  0  0
   26.6968    9.5179    1.3101 C   0  0  1  0  0  0  0  0  0  0  0  0
   27.1493   10.8279    1.4467 O   0  0  0  0  0  0  0  0  0  0  0  0
   27.5598    8.7716    4.1179 C   0  0  1  0  0  0  0  0  0  0  0  0
   26.5762    7.5803    4.3122 C   0  0  2  0  0  0  0  0  0  0  0  0
   25.3841    7.8929    3.6632 O   0  0  0  0  0  0  0  0  0  0  0  0
   26.4327    7.6511    5.7759 C   0  0  1  0  0  0  0  0  0  0  0  0
   27.8270    7.9955    6.3848 C   0  0  2  0  0  0  0  0  0  0  0  0
   28.2577    8.9018    5.3992 O   0  0  0  0  0  0  0  0  0  0  0  0
   28.7628    6.8413    6.7469 C   0  0  0  0  0  0  0  0  0  0  0  0
   29.9201    7.4309    7.3089 O   0  0  0  0  0  0  0  0  0  0  0  0
   24.8330    8.7333    7.2902 C   0  0  2  0  0  0  0  0  0  0  0  0
   25.4035    8.7055    6.0504 O   0  0  0  0  0  0  0  0  0  0  0  0
   24.1389   10.0353    7.5628 C   0  0  1  0  0  0  0  0  0  0  0  0
   27.0413    6.8025   10.7961 N   0  0  0  0  0  0  0  0  0  0  0  0
   24.4134   13.6884   -1.5084 O   0  0  0  0  0  0  0  0  0  0  0  0
   23.5490   10.0173    9.0263 C   0  0  2  0  0  0  0  0  0  0  0  0
   24.6240    9.7452   10.1349 C   0  0  1  0  0  0  0  0  0  0  0  0
   25.2706    8.4842    9.8568 C   0  0  1  0  0  0  0  0  0  0  0  0
   25.8467    8.4755    8.4535 O   0  0  0  0  0  0  0  0  0  0  0  0
   26.4029    8.1875   10.9352 C   0  0  0  0  0  0  0  0  0  0  0  0
   25.0581   11.1000    7.4751 N   0  0  0  0  0  0  0  0  0  0  0  0
   31.3977    4.0573    3.6532 O   0  0  0  0  0  0  0  0  0  0  0  0
   23.9352   11.9369   -2.8735 C   0  0  0  0  0  0  0  0  0  0  0  0
   25.4080   10.5825   10.0914 O   0  0  0  0  0  0  0  0  0  0  0  0
   22.7816    9.1630    9.0926 O   0  0  0  0  0  0  0  0  0  0  0  0
   25.5190   11.4794   -1.1756 C   0  0  0  0  0  0  0  0  0  0  0  0
   22.5774   12.0354   -3.0798 C   0  0  0  0  0  0  0  0  0  0  0  0
   24.1875   12.2843   -1.6121 C   0  0  1  0  0  0  0  0  0  0  0  0
   32.8937    5.9854    2.5828 F   0  0  0  0  0  0  0  0  0  0  0  0
  1  2  1  1  0  0  0
  1 10  1  0  0  0  0
  1  3  1  0  0  0  0
  3  4  1  1  0  0  0
  3  6  1  0  0  0  0
  5 46  2  0  0  0  0
  6 42  1  6  0  0  0
  6  8  1  0  0  0  0
  7 47  1  0  0  0  0
  8  9  1  0  0  0  0
  8 49  1  6  0  0  0
  9 10  1  0  0  0  0
  9 11  1  6  0  0  0
 11 12  1  0  0  0  0
 13 14  1  1  0  0  0
 13 15  1  0  0  0  0
 13 21  1  0  0  0  0
 14 46  1  0  0  0  0
 15 16  1  0  0  0  0
 16 17  1  1  0  0  0
 16 18  1  0  0  0  0
 18  2  1  6  0  0  0
 18 19  1  0  0  0  0
 19 20  1  1  0  0  0
 19 21  1  0  0  0  0
 21 22  1  6  0  0  0
 23 20  1  6  0  0  0
 23 24  1  0  0  0  0
 23 28  1  0  0  0  0
 24 25  1  6  0  0  0
 24 26  1  0  0  0  0
 26 27  1  0  0  0  0
 26 32  1  6  0  0  0
 27 28  1  0  0  0  0
 27 29  1  6  0  0  0
 29 30  1  0  0  0  0
 31 32  1  6  0  0  0
 31 33  1  0  0  0  0
 31 39  1  0  0  0  0
 33 36  1  0  0  0  0
 33 41  1  1  0  0  0
 34 40  1  0  0  0  0
 35 48  1  0  0  0  0
 36 37  1  0  0  0  0
 36 45  1  6  0  0  0
 37 38  1  0  0  0  0
 37 44  1  6  0  0  0
 38 39  1  0  0  0  0
 38 40  1  1  0  0  0
 43 47  1  0  0  0  0
 46 48  1  0  0  0  0
 48 43  1  6  0  0  0
M  END
>  <CHROM.1>
-175.38065796,56.67342906,-57.64169659,-155.64126454,-72.44778569,55.56305284
163.36071001,-178.20405982,163.56213915,174.11814992,-176.11219705,-89.13129272
-27.77259859,27.16887148,8.47948839,3.53951155,-1.67716260,-0.63487862,1.69772687

>  <Name>
ligand

>  <RI>
0

>  <Rbt.Current_Directory>
/home/itssahil/PROJECTS/Mol_Feturizer/New_Systems/rnas/4PDQ

>  <Rbt.Executable>
rbdock ($Id: //depot/dev/client3/rdock/2013.1/src/exe/rbdock.cxx#4 $)

>  <Rbt.Library>
libRbt.so (2013.1, Build901 2013/11/27)

>  <Rbt.Parameter_File>
/export/apps/rDock/src/rDock_2013.1_src/data/scripts/dock_solv.prm

>  <Rbt.Receptor>
prm/pocket_docking_7.prm

>  <SCORE>
-15.646

>  <SCORE.INTER>
-1.93674

>  <SCORE.INTER.CONST>
1

>  <SCORE.INTER.POLAR>
0

>  <SCORE.INTER.ROT>
13

>  <SCORE.INTER.SOLV>
13.6789

>  <SCORE.INTER.VDW>
-18.1175

>  <SCORE.INTER.norm>
-0.0395253

>  <SCORE.INTRA>
-13.7221

>  <SCORE.INTRA.DIHEDRAL>
-26.2877

>  <SCORE.INTRA.DIHEDRAL.0>
34.5115

>  <SCORE.INTRA.POLAR>
0

>  <SCORE.INTRA.POLAR.0>
0

>  <SCORE.INTRA.REPUL>
0

>  <SCORE.INTRA.REPUL.0>
0

>  <SCORE.INTRA.SOLV>
-2.63332

>  <SCORE.INTRA.SOLV.lig_0>
-122.812

>  <SCORE.INTRA.VDW>
0.738365

>  <SCORE.INTRA.VDW.0>
-7.46208

>  <SCORE.INTRA.norm>
-0.280043

>  <SCORE.RESTR>
0.012906

>  <SCORE.RESTR.CAVITY>
0.012906

>  <SCORE.RESTR.norm>
0.000263387

>  <SCORE.SYSTEM>
0

>  <SCORE.SYSTEM.CONST>
0

>  <SCORE.SYSTEM.DIHEDRAL>
0

>  <SCORE.SYSTEM.SOLV>
0

>  <SCORE.SYSTEM.norm>
0

>  <SCORE.heavy>
49

>  <SCORE.norm>
-0.319305

>  <RMSD>
7.372

$$$$
ligand
 OpenBabel11021811513D
libRbt.so/2013.1/901 2013/11/27
 49 52  0  0  0  0  0  0  0  0999 V2000
   28.0864   13.0703    7.0752 C   0  0  2  0  0  0  0  0  0  0  0  0
   29.2507   12.3446    7.3393 O   0  0  0  0  0  0  0  0  0  0  0  0
   27.9297   14.2257    8.1324 C   0  0  2  0  0  0  0  0  0  0  0  0
   29.1475   15.1338    8.0625 N   0  0  0  0  0  0  0  0  0  0  0  0
   33.8796   10.0716    2.8942 O   0  0  0  0  0  0  0  0  0  0  0  0
   27.7454   13.6369    9.5505 C   0  0  2  0  0  0  0  0  0  0  0  0
   36.3373    6.9547    0.0139 N   0  0  0  0  0  0  0  0  0  0  0  0
   26.5217   12.7082    9.5910 C   0  0  2  0  0  0  0  0  0  0  0  0
   26.6429   11.5293    8.5350 C   0  0  2  0  0  0  0  0  0  0  0  0
   26.8770   12.1566    7.1595 O   0  0  0  0  0  0  0  0  0  0  0  0
   25.3760   10.6257    8.5429 C   0  0  0  0  0  0  0  0  0  0  0  0
   25.4821    9.4821    7.7093 N   0  0  0  0  0  0  0  0  0  0  0  0
   32.2387    9.9571    5.2961 C   0  0  2  0  0  0  0  0  0  0  0  0
   32.9056    8.7610    4.7031 N   0  0  0  0  0  0  0  0  0  0  0  0
   31.7031    9.5251    6.7462 C   0  0  0  0  0  0  0  0  0  0  0  0
   31.0026   10.7424    7.4575 C   0  0  2  0  0  0  0  0  0  0  0  0
   30.4895   10.3537    8.7794 N   0  0  0  0  0  0  0  0  0  0  0  0
   29.8183   11.2471    6.6092 C   0  0  2  0  0  0  0  0  0  0  0  0
   30.3121   11.6778    5.1692 C   0  0  2  0  0  0  0  0  0  0  0  0
   29.1150   12.1485    4.4447 O   0  0  0  0  0  0  0  0  0  0  0  0
   30.9659   10.3976    4.4378 C   0  0  1  0  0  0  0  0  0  0  0  0
   31.3865   10.7947    3.1709 O   0  0  0  0  0  0  0  0  0  0  0  0
   28.1826   11.4210    3.9308 C   0  0  1  0  0  0  0  0  0  0  0  0
   26.9447   12.1941    3.3880 C   0  0  2  0  0  0  0  0  0  0  0  0
   26.0106   12.2922    4.4165 O   0  0  0  0  0  0  0  0  0  0  0  0
   26.5197   11.2316    2.3580 C   0  0  1  0  0  0  0  0  0  0  0  0
   27.7981   10.6502    1.6790 C   0  0  2  0  0  0  0  0  0  0  0  0
   28.6107   10.5626    2.8237 O   0  0  0  0  0  0  0  0  0  0  0  0
   28.3641   11.3791    0.4594 C   0  0  0  0  0  0  0  0  0  0  0  0
   27.3273   11.4044   -0.5035 O   0  0  0  0  0  0  0  0  0  0  0  0
   25.2084    9.1574    2.3190 C   0  0  2  0  0  0  0  0  0  0  0  0
   25.7108   10.1854    3.0634 O   0  0  0  0  0  0  0  0  0  0  0  0
   24.4781    8.1543    3.1627 C   0  0  1  0  0  0  0  0  0  0  0  0
   28.0904    5.9910    0.7354 N   0  0  0  0  0  0  0  0  0  0  0  0
   33.5363    6.5016    3.2822 O   0  0  0  0  0  0  0  0  0  0  0  0
   23.9704    6.9725    2.2485 C   0  0  2  0  0  0  0  0  0  0  0  0
   25.1146    6.2609    1.4464 C   0  0  1  0  0  0  0  0  0  0  0  0
   25.7954    7.2433    0.6359 C   0  0  1  0  0  0  0  0  0  0  0  0
   26.2937    8.3920    1.4923 O   0  0  0  0  0  0  0  0  0  0  0  0
   26.9960    6.5718   -0.1645 C   0  0  0  0  0  0  0  0  0  0  0  0
   25.3474    7.6146    4.1319 N   0  0  0  0  0  0  0  0  0  0  0  0
   27.5932   14.4927   10.2927 O   0  0  0  0  0  0  0  0  0  0  0  0
   34.5133    7.7137    1.6281 C   0  0  0  0  0  0  0  0  0  0  0  0
   25.8606    5.8173    2.1976 O   0  0  0  0  0  0  0  0  0  0  0  0
   23.2428    7.4081    1.4713 O   0  0  0  0  0  0  0  0  0  0  0  0
   33.7152    8.9814    3.4601 C   0  0  0  0  0  0  0  0  0  0  0  0
   35.6514    7.0353    1.2532 C   0  0  0  0  0  0  0  0  0  0  0  0
   34.3815    7.6007    2.9491 C   0  0  1  0  0  0  0  0  0  0  0  0
   25.3561   13.4389    9.2999 F   0  0  0  0  0  0  0  0  0  0  0  0
  1  2  1  1  0  0  0
  1 10  1  0  0  0  0
  1  3  1  0  0  0  0
  3  4  1  1  0  0  0
  3  6  1  0  0  0  0
  5 46  2  0  0  0  0
  6 42  1  1  0  0  0
  6  8  1  0  0  0  0
  7 47  1  0  0  0  0
  8  9  1  0  0  0  0
  8 49  1  6  0  0  0
  9 10  1  0  0  0  0
  9 11  1  6  0  0  0
 11 12  1  0  0  0  0
 13 14  1  6  0  0  0
 13 15  1  0  0  0  0
 13 21  1  0  0  0  0
 14 46  1  0  0  0  0
 15 16  1  0  0  0  0
 16 17  1  1  0  0  0
 16 18  1  0  0  0  0
 18  2  1  1  0  0  0
 18 19  1  0  0  0  0
 19 20  1  6  0  0  0
 19 21  1  0  0  0  0
 21 22  1  6  0  0  0
 23 20  1  6  0  0  0
 23 24  1  0  0  0  0
 23 28  1  0  0  0  0
 24 25  1  1  0  0  0
 24 26  1  0  0  0  0
 26 27  1  0  0  0  0
 26 32  1  1  0  0  0
 27 28  1  0  0  0  0
 27 29  1  6  0  0  0
 29 30  1  0  0  0  0
 31 32  1  1  0  0  0
 31 33  1  0  0  0  0
 31 39  1  0  0  0  0
 33 36  1  0  0  0  0
 33 41  1  1  0  0  0
 34 40  1  0  0  0  0
 35 48  1  0  0  0  0
 36 37  1  0  0  0  0
 36 45  1  6  0  0  0
 37 38  1  0  0  0  0
 37 44  1  1  0  0  0
 38 39  1  0  0  0  0
 38 40  1  1  0  0  0
 43 47  1  0  0  0  0
 46 48  1  0  0  0  0
 48 43  1  6  0  0  0
M  END
>  <CHROM.1>
-177.22812787,-173.32337379,-174.33261702,-168.69555600,-76.01166617,172.25074456
-179.24701513,-58.40491029,177.27955055,-62.73083511,-172.02240841,-94.10011102
-149.50684923,28.61239060,10.11068138,4.38869615,-2.02207436,0.03128185,-2.20115228

>  <Name>
ligand

>  <RI>
0

>  <Rbt.Current_Directory>
/home/itssahil/PROJECTS/Mol_Feturizer/New_Systems/rnas/4PDQ

>  <Rbt.Executable>
rbdock ($Id: //depot/dev/client3/rdock/2013.1/src/exe/rbdock.cxx#4 $)

>  <Rbt.Library>
libRbt.so (2013.1, Build901 2013/11/27)

>  <Rbt.Parameter_File>
/export/apps/rDock/src/rDock_2013.1_src/data/scripts/dock_solv.prm

>  <Rbt.Receptor>
prm/pocket_docking_5.prm

>  <SCORE>
-18.6752

>  <SCORE.INTER>
-6.18744

>  <SCORE.INTER.CONST>
1

>  <SCORE.INTER.POLAR>
0

>  <SCORE.INTER.ROT>
13

>  <SCORE.INTER.SOLV>
19.8001

>  <SCORE.INTER.VDW>
-22.9916

>  <SCORE.INTER.norm>
-0.126274

>  <SCORE.INTRA>
-12.4878

>  <SCORE.INTRA.DIHEDRAL>
-27.4365

>  <SCORE.INTRA.DIHEDRAL.0>
34.5115

>  <SCORE.INTRA.POLAR>
0

>  <SCORE.INTRA.POLAR.0>
0

>  <SCORE.INTRA.REPUL>
0

>  <SCORE.INTRA.REPUL.0>
0

>  <SCORE.INTRA.SOLV>
-1.94302

>  <SCORE.INTRA.SOLV.lig_0>
-122.812

>  <SCORE.INTRA.VDW>
2.20199

>  <SCORE.INTRA.VDW.0>
-7.46208

>  <SCORE.INTRA.norm>
-0.254852

>  <SCORE.RESTR>
0

>  <SCORE.RESTR.CAVITY>
0

>  <SCORE.RESTR.norm>
0

>  <SCORE.SYSTEM>
0

>  <SCORE.SYSTEM.CONST>
0

>  <SCORE.SYSTEM.DIHEDRAL>
0

>  <SCORE.SYSTEM.SOLV>
0

>  <SCORE.SYSTEM.norm>
0

>  <SCORE.heavy>
49

>  <SCORE.norm>
-0.381127

>  <RMSD>
7.373

$$$$
ligand
 OpenBabel11021811513D
libRbt.so/2013.1/901 2013/11/27
 49 52  0  0  0  0  0  0  0  0999 V2000
   31.4071    9.6813    2.9682 C   0  0  2  0  0  0  0  0  0  0  0  0
   30.5254    8.7264    3.4809 O   0  0  0  0  0  0  0  0  0  0  0  0
   30.8593   11.1257    3.2695 C   0  0  2  0  0  0  0  0  0  0  0  0
   30.7075   11.2977    4.7727 N   0  0  0  0  0  0  0  0  0  0  0  0
   28.1899    4.2569    8.0863 O   0  0  0  0  0  0  0  0  0  0  0  0
   29.5170   11.3565    2.5367 C   0  0  2  0  0  0  0  0  0  0  0  0
   25.5844    6.2369   11.2481 N   0  0  0  0  0  0  0  0  0  0  0  0
   29.6911   11.1578    1.0229 C   0  0  2  0  0  0  0  0  0  0  0  0
   30.2449    9.7104    0.6795 C   0  0  2  0  0  0  0  0  0  0  0  0
   31.5413    9.5075    1.4660 O   0  0  0  0  0  0  0  0  0  0  0  0
   30.4712    9.5357   -0.8502 C   0  0  0  0  0  0  0  0  0  0  0  0
   30.9072    8.2370   -1.2208 N   0  0  0  0  0  0  0  0  0  0  0  0
   29.8748    6.4114    7.0892 C   0  0  2  0  0  0  0  0  0  0  0  0
   29.7193    6.0989    8.5402 N   0  0  0  0  0  0  0  0  0  0  0  0
   31.1666    7.3535    6.9478 C   0  0  0  0  0  0  0  0  0  0  0  0
   31.4202    7.7137    5.4364 C   0  0  2  0  0  0  0  0  0  0  0  0
   32.5899    8.5934    5.2955 N   0  0  0  0  0  0  0  0  0  0  0  0
   30.1950    8.4416    4.8482 C   0  0  2  0  0  0  0  0  0  0  0  0
   28.9011    7.5402    4.9759 C   0  0  2  0  0  0  0  0  0  0  0  0
   27.7950    8.3174    4.3825 O   0  0  0  0  0  0  0  0  0  0  0  0
   28.6266    7.2404    6.5367 C   0  0  1  0  0  0  0  0  0  0  0  0
   27.4810    6.4537    6.6282 O   0  0  0  0  0  0  0  0  0  0  0  0
   27.3725    9.4767    4.7571 C   0  0  1  0  0  0  0  0  0  0  0  0
   26.1358   10.0260    3.9867 C   0  0  2  0  0  0  0  0  0  0  0  0
   26.5964   10.7763    2.9074 O   0  0  0  0  0  0  0  0  0  0  0  0
   25.5804   10.8835    5.0470 C   0  0  1  0  0  0  0  0  0  0  0  0
   25.7475   10.1419    6.4092 C   0  0  2  0  0  0  0  0  0  0  0  0
   27.0120    9.5727    6.1736 O   0  0  0  0  0  0  0  0  0  0  0  0
   24.6238    9.2119    6.8688 C   0  0  0  0  0  0  0  0  0  0  0  0
   24.5287    8.1925    5.8919 O   0  0  0  0  0  0  0  0  0  0  0  0
   26.1628   13.0646    6.0097 C   0  0  2  0  0  0  0  0  0  0  0  0
   26.3418   12.1732    4.9914 O   0  0  0  0  0  0  0  0  0  0  0  0
   26.7891   14.3950    5.7115 C   0  0  1  0  0  0  0  0  0  0  0  0
   26.5265   11.5105   10.2448 N   0  0  0  0  0  0  0  0  0  0  0  0
   30.0812    4.6968   11.0247 O   0  0  0  0  0  0  0  0  0  0  0  0
   26.5891   15.3561    6.9469 C   0  0  2  0  0  0  0  0  0  0  0  0
   27.1662   14.7851    8.2885 C   0  0  1  0  0  0  0  0  0  0  0  0
   26.5421   13.5111    8.5587 C   0  0  1  0  0  0  0  0  0  0  0  0
   26.7200   12.5676    7.3843 O   0  0  0  0  0  0  0  0  0  0  0  0
   27.1314   12.8724    9.8921 C   0  0  0  0  0  0  0  0  0  0  0  0
   28.1735   14.2398    5.4980 N   0  0  0  0  0  0  0  0  0  0  0  0
   29.1611   12.4238    2.7379 O   0  0  0  0  0  0  0  0  0  0  0  0
   28.0799    5.7709   10.9954 C   0  0  0  0  0  0  0  0  0  0  0  0
   28.2953   14.6255    8.1573 O   0  0  0  0  0  0  0  0  0  0  0  0
   25.4595   15.5020    7.1080 O   0  0  0  0  0  0  0  0  0  0  0  0
   28.8113    4.9597    8.8960 C   0  0  0  0  0  0  0  0  0  0  0  0
   26.7365    5.4808   10.9109 C   0  0  0  0  0  0  0  0  0  0  0  0
   28.7576    4.7382   10.4958 C   0  0  1  0  0  0  0  0  0  0  0  0
   30.5984   12.1053    0.5166 F   0  0  0  0  0  0  0  0  0  0  0  0
  1  2  1  6  0  0  0
  1 10  1  0  0  0  0
  1  3  1  0  0  0  0
  3  4  1  1  0  0  0
  3  6  1  0  0  0  0
  5 46  2  0  0  0  0
  6 42  1  6  0  0  0
  6  8  1  0  0  0  0
  7 47  1  0  0  0  0
  8  9  1  0  0  0  0
  8 49  1  1  0  0  0
  9 10  1  0  0  0  0
  9 11  1  6  0  0  0
 11 12  1  0  0  0  0
 13 14  1  1  0  0  0
 13 15  1  0  0  0  0
 13 21  1  0  0  0  0
 14 46  1  0  0  0  0
 15 16  1  0  0  0  0
 16 17  1  1  0  0  0
 16 18  1  0  0  0  0
 18  2  1  6  0  0  0
 18 19  1  0  0  0  0
 19 20  1  1  0  0  0
 19 21  1  0  0  0  0
 21 22  1  6  0  0  0
 23 20  1  6  0  0  0
 23 24  1  0  0  0  0
 23 28  1  0  0  0  0
 24 25  1  6  0  0  0
 24 26  1  0  0  0  0
 26 27  1  0  0  0  0
 26 32  1  1  0  0  0
 27 28  1  0  0  0  0
 27 29  1  6  0  0  0
 29 30  1  0  0  0  0
 31 32  1  6  0  0  0
 31 33  1  0  0  0  0
 31 39  1  0  0  0  0
 33 36  1  0  0  0  0
 33 41  1  1  0  0  0
 34 40  1  0  0  0  0
 35 48  1  0  0  0  0
 36 37  1  0  0  0  0
 36 45  1  1  0  0  0
 37 38  1  0  0  0  0
 37 44  1  6  0  0  0
 38 39  1  0  0  0  0
 38 40  1  1  0  0  0
 43 47  1  0  0  0  0
 46 48  1  0  0  0  0
 48 43  1  1  0  0  0
M  END
>  <CHROM.1>
-66.35077557,-73.52292426,-177.20287473,-164.51344725,-59.44993675,-177.02961313
-169.87953618,61.78697676,-170.01346034,-179.58623583,-177.42375739,-156.03947890
129.95350353,28.34312386,9.77346021,5.77320257,-1.25325044,-1.00767900,2.46718911

>  <Name>
ligand

>  <RI>
0

>  <Rbt.Current_Directory>
/home/itssahil/PROJECTS/Mol_Feturizer/New_Systems/rnas/4PDQ

>  <Rbt.Executable>
rbdock ($Id: //depot/dev/client3/rdock/2013.1/src/exe/rbdock.cxx#4 $)

>  <Rbt.Library>
libRbt.so (2013.1, Build901 2013/11/27)

>  <Rbt.Parameter_File>
/export/apps/rDock/src/rDock_2013.1_src/data/scripts/dock_solv.prm

>  <Rbt.Receptor>
prm/pocket_docking_5.prm

>  <SCORE>
-11.9749

>  <SCORE.INTER>
0.620742

>  <SCORE.INTER.CONST>
1

>  <SCORE.INTER.POLAR>
0

>  <SCORE.INTER.ROT>
13

>  <SCORE.INTER.SOLV>
16.5315

>  <SCORE.INTER.VDW>
-17.3633

>  <SCORE.INTER.norm>
0.0126682

>  <SCORE.INTRA>
-12.5957

>  <SCORE.INTRA.DIHEDRAL>
-29.4051

>  <SCORE.INTRA.DIHEDRAL.0>
34.5115

>  <SCORE.INTRA.POLAR>
0

>  <SCORE.INTRA.POLAR.0>
0

>  <SCORE.INTRA.REPUL>
0

>  <SCORE.INTRA.REPUL.0>
0

>  <SCORE.INTRA.SOLV>
3.03414

>  <SCORE.INTRA.SOLV.lig_0>
-122.812

>  <SCORE.INTRA.VDW>
0.589807

>  <SCORE.INTRA.VDW.0>
-7.46208

>  <SCORE.INTRA.norm>
-0.257054

>  <SCORE.RESTR>
0

>  <SCORE.RESTR.CAVITY>
0

>  <SCORE.RESTR.norm>
0

>  <SCORE.SYSTEM>
0

>  <SCORE.SYSTEM.CONST>
0

>  <SCORE.SYSTEM.DIHEDRAL>
0

>  <SCORE.SYSTEM.SOLV>
0

>  <SCORE.SYSTEM.norm>
0

>  <SCORE.heavy>
49

>  <SCORE.norm>
-0.244386

>  <RMSD>
7.380

$$$$
ligand
 OpenBabel11021811513D
libRbt.so/2013.1/901 2013/11/27
 49 52  0  0  0  0  0  0  0  0999 V2000
   32.1790    7.9856    0.6064 C   0  0  2  0  0  0  0  0  0  0  0  0
   31.0975    7.8452    1.4796 O   0  0  0  0  0  0  0  0  0  0  0  0
   33.2182    6.8307    0.8582 C   0  0  2  0  0  0  0  0  0  0  0  0
   32.5344    5.4895    0.6436 N   0  0  0  0  0  0  0  0  0  0  0  0
   27.0664   11.8022   -2.0747 O   0  0  0  0  0  0  0  0  0  0  0  0
   33.8109    6.9404    2.2825 C   0  0  2  0  0  0  0  0  0  0  0  0
   23.8362   11.6535   -3.6012 N   0  0  0  0  0  0  0  0  0  0  0  0
   34.4782    8.3102    2.4818 C   0  0  2  0  0  0  0  0  0  0  0  0
   33.4597    9.5023    2.2340 C   0  0  2  0  0  0  0  0  0  0  0  0
   32.8607    9.3222    0.8380 O   0  0  0  0  0  0  0  0  0  0  0  0
   34.1560   10.8860    2.3831 C   0  0  0  0  0  0  0  0  0  0  0  0
   35.3614   10.8438    3.1310 N   0  0  0  0  0  0  0  0  0  0  0  0
   28.1389   10.8459    0.4571 C   0  0  2  0  0  0  0  0  0  0  0  0
   26.8091   11.5114    0.3310 N   0  0  0  0  0  0  0  0  0  0  0  0
   27.9467    9.3213   -0.0066 C   0  0  0  0  0  0  0  0  0  0  0  0
   29.3152    8.5471    0.0722 C   0  0  2  0  0  0  0  0  0  0  0  0
   29.1480    7.1430   -0.3310 N   0  0  0  0  0  0  0  0  0  0  0  0
   29.8614    8.5736    1.5137 C   0  0  2  0  0  0  0  0  0  0  0  0
   30.0587   10.0648    2.0041 C   0  0  2  0  0  0  0  0  0  0  0  0
   30.5873    9.9816    3.3799 O   0  0  0  0  0  0  0  0  0  0  0  0
   28.6316   10.8159    1.9760 C   0  0  1  0  0  0  0  0  0  0  0  0
   28.8249   12.1225    2.4177 O   0  0  0  0  0  0  0  0  0  0  0  0
   29.9226    9.7143    4.4521 C   0  0  1  0  0  0  0  0  0  0  0  0
   29.4841    8.2299    4.6222 C   0  0  2  0  0  0  0  0  0  0  0  0
   28.2203    8.0842    4.0551 O   0  0  0  0  0  0  0  0  0  0  0  0
   29.4281    8.1852    6.0929 C   0  0  1  0  0  0  0  0  0  0  0  0
   30.6249    9.0162    6.6503 C   0  0  2  0  0  0  0  0  0  0  0  0
   30.6066   10.0547    5.7019 O   0  0  0  0  0  0  0  0  0  0  0  0
   31.9532    8.2979    6.8925 C   0  0  0  0  0  0  0  0  0  0  0  0
   32.3044    7.6895    5.6640 O   0  0  0  0  0  0  0  0  0  0  0  0
   27.0169    7.9168    6.4633 C   0  0  2  0  0  0  0  0  0  0  0  0
   28.0967    8.7516    6.4838 O   0  0  0  0  0  0  0  0  0  0  0  0
   25.7868    8.5982    5.9401 C   0  0  1  0  0  0  0  0  0  0  0  0
   26.4030    4.9084    9.8749 N   0  0  0  0  0  0  0  0  0  0  0  0
   24.7774   13.3997    0.1794 O   0  0  0  0  0  0  0  0  0  0  0  0
   24.5704    7.5944    5.9921 C   0  0  2  0  0  0  0  0  0  0  0  0
   24.2911    7.0176    7.4233 C   0  0  1  0  0  0  0  0  0  0  0  0
   25.4844    6.3591    7.9008 C   0  0  1  0  0  0  0  0  0  0  0  0
   26.6704    7.3042    7.8604 O   0  0  0  0  0  0  0  0  0  0  0  0
   25.2602    5.7950    9.3720 C   0  0  0  0  0  0  0  0  0  0  0  0
   25.4708    9.7100    6.7466 N   0  0  0  0  0  0  0  0  0  0  0  0
   34.5906    6.1173    2.4263 O   0  0  0  0  0  0  0  0  0  0  0  0
   24.8732   13.4281   -2.0899 C   0  0  0  0  0  0  0  0  0  0  0  0
   24.0438    7.8927    8.1237 O   0  0  0  0  0  0  0  0  0  0  0  0
   24.8173    6.6971    5.3160 O   0  0  0  0  0  0  0  0  0  0  0  0
   26.3979   11.9523   -1.0421 C   0  0  0  0  0  0  0  0  0  0  0  0
   23.9281   12.9086   -2.9460 C   0  0  0  0  0  0  0  0  0  0  0  0
   24.9359   12.6404   -1.0171 C   0  0  1  0  0  0  0  0  0  0  0  0
   35.5501    8.4561    1.5834 F   0  0  0  0  0  0  0  0  0  0  0  0
  1  2  1  1  0  0  0
  1 10  1  0  0  0  0
  1  3  1  0  0  0  0
  3  4  1  1  0  0  0
  3  6  1  0  0  0  0
  5 46  2  0  0  0  0
  6 42  1  6  0  0  0
  6  8  1  0  0  0  0
  7 47  1  0  0  0  0
  8  9  1  0  0  0  0
  8 49  1  6  0  0  0
  9 10  1  0  0  0  0
  9 11  1  6  0  0  0
 11 12  1  0  0  0  0
 13 14  1  1  0  0  0
 13 15  1  0  0  0  0
 13 21  1  0  0  0  0
 14 46  1  0  0  0  0
 15 16  1  0  0  0  0
 16 17  1  1  0  0  0
 16 18  1  0  0  0  0
 18  2  1  6  0  0  0
 18 19  1  0  0  0  0
 19 20  1  1  0  0  0
 19 21  1  0  0  0  0
 21 22  1  6  0  0  0
 23 20  1  6  0  0  0
 23 24  1  0  0  0  0
 23 28  1  0  0  0  0
 24 25  1  6  0  0  0
 24 26  1  0  0  0  0
 26 27  1  0  0  0  0
 26 32  1  1  0  0  0
 27 28  1  0  0  0  0
 27 29  1  6  0  0  0
 29 30  1  0  0  0  0
 31 32  1  1  0  0  0
 31 33  1  0  0  0  0
 31 39  1  0  0  0  0
 33 36  1  0  0  0  0
 33 41  1  1  0  0  0
 34 40  1  0  0  0  0
 35 48  1  0  0  0  0
 36 37  1  0  0  0  0
 36 45  1  6  0  0  0
 37 38  1  0  0  0  0
 37 44  1  1  0  0  0
 38 39  1  0  0  0  0
 38 40  1  1  0  0  0
 43 47  1  0  0  0  0
 46 48  1  0  0  0  0
 48 43  1  6  0  0  0
M  END
>  <CHROM.1>
-172.62060484,49.84133642,-20.52465845,-79.83240202,-77.12253291,73.33111062
83.31610442,55.33363642,-140.62417344,171.62037462,-60.05301556,-127.10871315
-144.19069268,29.00101970,9.04115157,3.11304305,-1.16354728,-0.19568339,2.03233007

>  <Name>
ligand

>  <RI>
0

>  <Rbt.Current_Directory>
/home/itssahil/PROJECTS/Mol_Feturizer/New_Systems/rnas/4PDQ

>  <Rbt.Executable>
rbdock ($Id: //depot/dev/client3/rdock/2013.1/src/exe/rbdock.cxx#4 $)

>  <Rbt.Library>
libRbt.so (2013.1, Build901 2013/11/27)

>  <Rbt.Parameter_File>
/export/apps/rDock/src/rDock_2013.1_src/data/scripts/dock_solv.prm

>  <Rbt.Receptor>
prm/pocket_docking_4.prm

>  <SCORE>
-1.61188

>  <SCORE.INTER>
1.70873

>  <SCORE.INTER.CONST>
1

>  <SCORE.INTER.POLAR>
0

>  <SCORE.INTER.ROT>
13

>  <SCORE.INTER.SOLV>
19.391

>  <SCORE.INTER.VDW>
-17.5912

>  <SCORE.INTER.norm>
0.034872

>  <SCORE.INTRA>
-4.022

>  <SCORE.INTRA.DIHEDRAL>
-12.9947

>  <SCORE.INTRA.DIHEDRAL.0>
34.5115

>  <SCORE.INTRA.POLAR>
0

>  <SCORE.INTRA.POLAR.0>
0

>  <SCORE.INTRA.REPUL>
0.0166422

>  <SCORE.INTRA.REPUL.0>
0

>  <SCORE.INTRA.SOLV>
-0.223111

>  <SCORE.INTRA.SOLV.lig_0>
-122.812

>  <SCORE.INTRA.VDW>
2.50371

>  <SCORE.INTRA.VDW.0>
-7.46208

>  <SCORE.INTRA.norm>
-0.0820815

>  <SCORE.RESTR>
0.701388

>  <SCORE.RESTR.CAVITY>
0.701388

>  <SCORE.RESTR.norm>
0.014314

>  <SCORE.SYSTEM>
0

>  <SCORE.SYSTEM.CONST>
0

>  <SCORE.SYSTEM.DIHEDRAL>
0

>  <SCORE.SYSTEM.SOLV>
0

>  <SCORE.SYSTEM.norm>
0

>  <SCORE.heavy>
49

>  <SCORE.norm>
-0.0328955

>  <RMSD>
7.394

$$$$
ligand
 OpenBabel11021811513D
libRbt.so/2013.1/901 2013/11/27
 49 52  0  0  0  0  0  0  0  0999 V2000
   33.5228   11.3234    1.7785 C   0  0  2  0  0  0  0  0  0  0  0  0
   32.6847   10.2146    1.9208 O   0  0  0  0  0  0  0  0  0  0  0  0
   33.6252   11.7199    0.2588 C   0  0  2  0  0  0  0  0  0  0  0  0
   32.2344   12.0358   -0.2687 N   0  0  0  0  0  0  0  0  0  0  0  0
   27.1247    8.9922    0.9281 O   0  0  0  0  0  0  0  0  0  0  0  0
   34.2910   10.5829   -0.5510 C   0  0  2  0  0  0  0  0  0  0  0  0
   22.7128    9.9524   -2.0471 N   0  0  0  0  0  0  0  0  0  0  0  0
   35.6857   10.2684    0.0126 C   0  0  2  0  0  0  0  0  0  0  0  0
   35.6229    9.8654    1.5467 C   0  0  2  0  0  0  0  0  0  0  0  0
   34.9108   10.9925    2.2970 O   0  0  0  0  0  0  0  0  0  0  0  0
   37.0436    9.6026    2.1246 C   0  0  0  0  0  0  0  0  0  0  0  0
   37.8357    8.7359    1.3274 N   0  0  0  0  0  0  0  0  0  0  0  0
   29.0043   10.8581   -0.2801 C   0  0  2  0  0  0  0  0  0  0  0  0
   27.6407   10.6002   -0.8286 N   0  0  0  0  0  0  0  0  0  0  0  0
   29.8587    9.5166   -0.4962 C   0  0  0  0  0  0  0  0  0  0  0  0
   31.3278    9.7100    0.0355 C   0  0  2  0  0  0  0  0  0  0  0  0
   32.1152    8.4805   -0.1385 N   0  0  0  0  0  0  0  0  0  0  0  0
   31.3103   10.0638    1.5360 C   0  0  2  0  0  0  0  0  0  0  0  0
   30.4711   11.3817    1.7847 C   0  0  2  0  0  0  0  0  0  0  0  0
   30.5217   11.6366    3.2379 O   0  0  0  0  0  0  0  0  0  0  0  0
   28.9552   11.1351    1.2920 C   0  0  1  0  0  0  0  0  0  0  0  0
   28.2320   12.3020    1.5263 O   0  0  0  0  0  0  0  0  0  0  0  0
   29.6055   11.3697    4.1052 C   0  0  1  0  0  0  0  0  0  0  0  0
   29.7801   10.0316    4.8820 C   0  0  2  0  0  0  0  0  0  0  0  0
   29.1104    9.0327    4.1796 O   0  0  0  0  0  0  0  0  0  0  0  0
   29.0664   10.3999    6.1161 C   0  0  1  0  0  0  0  0  0  0  0  0
   29.4114   11.8835    6.4528 C   0  0  2  0  0  0  0  0  0  0  0  0
   29.4214   12.3896    5.1404 O   0  0  0  0  0  0  0  0  0  0  0  0
   30.6326   12.1605    7.3308 C   0  0  0  0  0  0  0  0  0  0  0  0
   30.4403   11.4206    8.5217 O   0  0  0  0  0  0  0  0  0  0  0  0
   26.8744    9.5081    6.7667 C   0  0  2  0  0  0  0  0  0  0  0  0
   27.6080   10.1918    5.8405 O   0  0  0  0  0  0  0  0  0  0  0  0
   25.4149    9.4780    6.4201 C   0  0  1  0  0  0  0  0  0  0  0  0
   27.9452   10.0012   11.1594 N   0  0  0  0  0  0  0  0  0  0  0  0
   24.6733    8.3033   -0.2758 O   0  0  0  0  0  0  0  0  0  0  0  0
   24.6233    8.7192    7.5549 C   0  0  2  0  0  0  0  0  0  0  0  0
   24.8187    9.3398    8.9816 C   0  0  1  0  0  0  0  0  0  0  0  0
   26.2282    9.3489    9.2961 C   0  0  1  0  0  0  0  0  0  0  0  0
   27.0129   10.0733    8.2188 O   0  0  0  0  0  0  0  0  0  0  0  0
   26.4780   10.0124   10.7210 C   0  0  0  0  0  0  0  0  0  0  0  0
   24.9109   10.7917    6.3392 N   0  0  0  0  0  0  0  0  0  0  0  0
   34.3908   10.9107   -1.6413 O   0  0  0  0  0  0  0  0  0  0  0  0
   24.6681   10.5611   -0.5257 C   0  0  0  0  0  0  0  0  0  0  0  0
   24.4356   10.4216    8.9607 O   0  0  0  0  0  0  0  0  0  0  0  0
   25.0179    7.6400    7.6065 O   0  0  0  0  0  0  0  0  0  0  0  0
   26.7904    9.6065   -0.0949 C   0  0  0  0  0  0  0  0  0  0  0  0
   23.7568   10.7666   -1.5373 C   0  0  0  0  0  0  0  0  0  0  0  0
   25.3451    9.4467   -0.8000 C   0  0  1  0  0  0  0  0  0  0  0  0
   36.5173   11.3956   -0.1104 F   0  0  0  0  0  0  0  0  0  0  0  0
  1  2  1  6  0  0  0
  1 10  1  0  0  0  0
  1  3  1  0  0  0  0
  3  4  1  6  0  0  0
  3  6  1  0  0  0  0
  5 46  2  0  0  0  0
  6 42  1  6  0  0  0
  6  8  1  0  0  0  0
  7 47  1  0  0  0  0
  8  9  1  0  0  0  0
  8 49  1  1  0  0  0
  9 10  1  0  0  0  0
  9 11  1  1  0  0  0
 11 12  1  0  0  0  0
 13 14  1  1  0  0  0
 13 15  1  0  0  0  0
 13 21  1  0  0  0  0
 14 46  1  0  0  0  0
 15 16  1  0  0  0  0
 16 17  1  1  0  0  0
 16 18  1  0  0  0  0
 18  2  1  6  0  0  0
 18 19  1  0  0  0  0
 19 20  1  1  0  0  0
 19 21  1  0  0  0  0
 21 22  1  6  0  0  0
 23 20  1  1  0  0  0
 23 24  1  0  0  0  0
 23 28  1  0  0  0  0
 24 25  1  6  0  0  0
 24 26  1  0  0  0  0
 26 27  1  0  0  0  0
 26 32  1  6  0  0  0
 27 28  1  0  0  0  0
 27 29  1  6  0  0  0
 29 30  1  0  0  0  0
 31 32  1  6  0  0  0
 31 33  1  0  0  0  0
 31 39  1  0  0  0  0
 33 36  1  0  0  0  0
 33 41  1  1  0  0  0
 34 40  1  0  0  0  0
 35 48  1  0  0  0  0
 36 37  1  0  0  0  0
 36 45  1  1  0  0  0
 37 38  1  0  0  0  0
 37 44  1  6  0  0  0
 38 39  1  0  0  0  0
 38 40  1  1  0  0  0
 43 47  1  0  0  0  0
 46 48  1  0  0  0  0
 48 43  1  1  0  0  0
M  END
>  <CHROM.1>
-58.40328033,82.55433345,-49.07748800,68.05799201,-100.63509491,96.82366231
132.39018852,-55.59074519,175.04515081,177.27669998,57.03024715,-87.91910401
-13.61309960,29.45346210,10.31969332,3.21058628,-0.71452817,0.08591561,1.56346411

>  <Name>
ligand

>  <RI>
0

>  <Rbt.Current_Directory>
/home/itssahil/PROJECTS/Mol_Feturizer/New_Systems/rnas/4PDQ

>  <Rbt.Executable>
rbdock ($Id: //depot/dev/client3/rdock/2013.1/src/exe/rbdock.cxx#4 $)

>  <Rbt.Library>
libRbt.so (2013.1, Build901 2013/11/27)

>  <Rbt.Parameter_File>
/export/apps/rDock/src/rDock_2013.1_src/data/scripts/dock_solv.prm

>  <Rbt.Receptor>
prm/pocket_docking_2.prm

>  <SCORE>
10.3691

>  <SCORE.INTER>
1.5041

>  <SCORE.INTER.CONST>
1

>  <SCORE.INTER.POLAR>
0

>  <SCORE.INTER.ROT>
13

>  <SCORE.INTER.SOLV>
22.5854

>  <SCORE.INTER.VDW>
-18.7924

>  <SCORE.INTER.norm>
0.030696

>  <SCORE.INTRA>
3.46567

>  <SCORE.INTRA.DIHEDRAL>
-11.3937

>  <SCORE.INTRA.DIHEDRAL.0>
34.5115

>  <SCORE.INTRA.POLAR>
0

>  <SCORE.INTRA.POLAR.0>
0

>  <SCORE.INTRA.REPUL>
0.282871

>  <SCORE.INTRA.REPUL.0>
0

>  <SCORE.INTRA.SOLV>
6.00466

>  <SCORE.INTRA.SOLV.lig_0>
-122.812

>  <SCORE.INTRA.VDW>
4.74583

>  <SCORE.INTRA.VDW.0>
-7.46208

>  <SCORE.INTRA.norm>
0.070728

>  <SCORE.RESTR>
5.3993

>  <SCORE.RESTR.CAVITY>
5.3993

>  <SCORE.RESTR.norm>
0.11019

>  <SCORE.SYSTEM>
0

>  <SCORE.SYSTEM.CONST>
0

>  <SCORE.SYSTEM.DIHEDRAL>
0

>  <SCORE.SYSTEM.SOLV>
0

>  <SCORE.SYSTEM.norm>
0

>  <SCORE.heavy>
49

>  <SCORE.norm>
0.211614

>  <RMSD>
7.407

$$$$
ligand
 OpenBabel11021811513D
libRbt.so/2013.1/901 2013/11/27
 49 52  0  0  0  0  0  0  0  0999 V2000
   26.5836    7.3250    0.2757 C   0  0  2  0  0  0  0  0  0  0  0  0
   25.9938    8.3583    1.0080 O   0  0  0  0  0  0  0  0  0  0  0  0
   26.8219    6.0810    1.2101 C   0  0  2  0  0  0  0  0  0  0  0  0
   25.4896    5.6284    1.7868 N   0  0  0  0  0  0  0  0  0  0  0  0
   26.4643   13.3662   -3.6338 O   0  0  0  0  0  0  0  0  0  0  0  0
   27.8306    6.4327    2.3284 C   0  0  2  0  0  0  0  0  0  0  0  0
   21.2518   13.6618   -4.4404 N   0  0  0  0  0  0  0  0  0  0  0  0
   29.1609    6.9058    1.7217 C   0  0  2  0  0  0  0  0  0  0  0  0
   28.9601    8.1602    0.7700 C   0  0  2  0  0  0  0  0  0  0  0  0
   27.9177    7.7842   -0.2847 O   0  0  0  0  0  0  0  0  0  0  0  0
   30.3023    8.5990    0.1160 C   0  0  0  0  0  0  0  0  0  0  0  0
   31.2938    8.9938    1.0513 N   0  0  0  0  0  0  0  0  0  0  0  0
   25.1386   11.6193   -1.7192 C   0  0  2  0  0  0  0  0  0  0  0  0
   24.5172   12.8650   -2.2569 N   0  0  0  0  0  0  0  0  0  0  0  0
   23.9488   10.7187   -1.1278 C   0  0  0  0  0  0  0  0  0  0  0  0
   24.5161    9.3652   -0.5581 C   0  0  2  0  0  0  0  0  0  0  0  0
   23.4377    8.5396    0.0051 N   0  0  0  0  0  0  0  0  0  0  0  0
   25.5433    9.6443    0.5572 C   0  0  2  0  0  0  0  0  0  0  0  0
   26.7296   10.5351    0.0076 C   0  0  2  0  0  0  0  0  0  0  0  0
   27.6545   10.7374    1.1404 O   0  0  0  0  0  0  0  0  0  0  0  0
   26.1300   11.9405   -0.5091 C   0  0  1  0  0  0  0  0  0  0  0  0
   27.1891   12.7121   -0.9808 O   0  0  0  0  0  0  0  0  0  0  0  0
   27.3943   11.3212    2.2603 C   0  0  1  0  0  0  0  0  0  0  0  0
   26.5448   10.4955    3.2709 C   0  0  2  0  0  0  0  0  0  0  0  0
   25.2015   10.7884    3.0480 O   0  0  0  0  0  0  0  0  0  0  0  0
   27.0343   11.1056    4.5184 C   0  0  1  0  0  0  0  0  0  0  0  0
   28.5660   11.3592    4.3670 C   0  0  2  0  0  0  0  0  0  0  0  0
   28.5712   11.7545    3.0171 O   0  0  0  0  0  0  0  0  0  0  0  0
   29.5279   10.2463    4.7856 C   0  0  0  0  0  0  0  0  0  0  0  0
   29.2860   10.0095    6.1597 O   0  0  0  0  0  0  0  0  0  0  0  0
   26.3421   13.0025    5.9133 C   0  0  2  0  0  0  0  0  0  0  0  0
   26.2528   12.3705    4.7066 O   0  0  0  0  0  0  0  0  0  0  0  0
   25.4484   14.2054    5.9877 C   0  0  1  0  0  0  0  0  0  0  0  0
   30.4342   13.3446    7.8576 N   0  0  0  0  0  0  0  0  0  0  0  0
   25.4228   15.9087   -4.3090 O   0  0  0  0  0  0  0  0  0  0  0  0
   25.6399   14.9138    7.3847 C   0  0  2  0  0  0  0  0  0  0  0  0
   27.1217   15.3329    7.6801 C   0  0  1  0  0  0  0  0  0  0  0  0
   27.9598   14.1587    7.6125 C   0  0  1  0  0  0  0  0  0  0  0  0
   27.7937   13.4581    6.2774 O   0  0  0  0  0  0  0  0  0  0  0  0
   29.4832   14.5449    7.8634 C   0  0  0  0  0  0  0  0  0  0  0  0
   25.7945   15.1271    4.9792 N   0  0  0  0  0  0  0  0  0  0  0  0
   28.0176    5.5038    2.9675 O   0  0  0  0  0  0  0  0  0  0  0  0
   23.6383   14.5418   -4.6367 C   0  0  0  0  0  0  0  0  0  0  0  0
   27.4557   16.0750    6.8706 O   0  0  0  0  0  0  0  0  0  0  0  0
   25.3357   14.1702    8.2080 O   0  0  0  0  0  0  0  0  0  0  0  0
   25.3291   13.6618   -3.2340 C   0  0  0  0  0  0  0  0  0  0  0  0
   22.4833   14.1903   -3.9746 C   0  0  0  0  0  0  0  0  0  0  0  0
   24.5191   14.9683   -3.7324 C   0  0  1  0  0  0  0  0  0  0  0  0
   29.7376    5.8701    0.9654 F   0  0  0  0  0  0  0  0  0  0  0  0
  1  2  1  1  0  0  0
  1 10  1  0  0  0  0
  1  3  1  0  0  0  0
  3  4  1  1  0  0  0
  3  6  1  0  0  0  0
  5 46  2  0  0  0  0
  6 42  1  6  0  0  0
  6  8  1  0  0  0  0
  7 47  1  0  0  0  0
  8  9  1  0  0  0  0
  8 49  1  6  0  0  0
  9 10  1  0  0  0  0
  9 11  1  6  0  0  0
 11 12  1  0  0  0  0
 13 14  1  1  0  0  0
 13 15  1  0  0  0  0
 13 21  1  0  0  0  0
 14 46  1  0  0  0  0
 15 16  1  0  0  0  0
 16 17  1  1  0  0  0
 16 18  1  0  0  0  0
 18  2  1  6  0  0  0
 18 19  1  0  0  0  0
 19 20  1  1  0  0  0
 19 21  1  0  0  0  0
 21 22  1  6  0  0  0
 23 20  1  6  0  0  0
 23 24  1  0  0  0  0
 23 28  1  0  0  0  0
 24 25  1  6  0  0  0
 24 26  1  0  0  0  0
 26 27  1  0  0  0  0
 26 32  1  6  0  0  0
 27 28  1  0  0  0  0
 27 29  1  6  0  0  0
 29 30  1  0  0  0  0
 31 32  1  6  0  0  0
 31 33  1  0  0  0  0
 31 39  1  0  0  0  0
 33 36  1  0  0  0  0
 33 41  1  6  0  0  0
 34 40  1  0  0  0  0
 35 48  1  0  0  0  0
 36 37  1  0  0  0  0
 36 45  1  1  0  0  0
 37 38  1  0  0  0  0
 37 44  1  6  0  0  0
 38 39  1  0  0  0  0
 38 40  1  6  0  0  0
 43 47  1  0  0  0  0
 46 48  1  0  0  0  0
 48 43  1  6  0  0  0
M  END
>  <CHROM.1>
-176.71837008,57.16616472,-61.10104317,-161.18806127,-61.40151083,75.71267411
168.31383031,-60.10649023,-176.61582639,177.94083642,-178.88977967,-151.93563935
-18.88459611,26.75752795,11.25228033,1.91703795,-2.27181641,-1.08512634,0.80342661

>  <Name>
ligand

>  <RI>
0

>  <Rbt.Current_Directory>
/home/itssahil/PROJECTS/Mol_Feturizer/New_Systems/rnas/4PDQ

>  <Rbt.Executable>
rbdock ($Id: //depot/dev/client3/rdock/2013.1/src/exe/rbdock.cxx#4 $)

>  <Rbt.Library>
libRbt.so (2013.1, Build901 2013/11/27)

>  <Rbt.Parameter_File>
/export/apps/rDock/src/rDock_2013.1_src/data/scripts/dock_solv.prm

>  <Rbt.Receptor>
prm/pocket_docking_6.prm

>  <SCORE>
-17.4154

>  <SCORE.INTER>
-3.32518

>  <SCORE.INTER.CONST>
1

>  <SCORE.INTER.POLAR>
0

>  <SCORE.INTER.ROT>
13

>  <SCORE.INTER.SOLV>
23.6865

>  <SCORE.INTER.VDW>
-22.379

>  <SCORE.INTER.norm>
-0.0678607

>  <SCORE.INTRA>
-14.0903

>  <SCORE.INTRA.DIHEDRAL>
-28.7056

>  <SCORE.INTRA.DIHEDRAL.0>
34.5115

>  <SCORE.INTRA.POLAR>
0

>  <SCORE.INTRA.POLAR.0>
0

>  <SCORE.INTRA.REPUL>
0

>  <SCORE.INTRA.REPUL.0>
0

>  <SCORE.INTRA.SOLV>
-1.29488

>  <SCORE.INTRA.SOLV.lig_0>
-122.812

>  <SCORE.INTRA.VDW>
0.909961

>  <SCORE.INTRA.VDW.0>
-7.46208

>  <SCORE.INTRA.norm>
-0.287557

>  <SCORE.RESTR>
0

>  <SCORE.RESTR.CAVITY>
0

>  <SCORE.RESTR.norm>
0

>  <SCORE.SYSTEM>
0

>  <SCORE.SYSTEM.CONST>
0

>  <SCORE.SYSTEM.DIHEDRAL>
0

>  <SCORE.SYSTEM.SOLV>
0

>  <SCORE.SYSTEM.norm>
0

>  <SCORE.heavy>
49

>  <SCORE.norm>
-0.355417

>  <RMSD>
7.439

$$$$
ligand
 OpenBabel11021811513D
libRbt.so/2013.1/901 2013/11/27
 49 52  0  0  0  0  0  0  0  0999 V2000
   32.0570   11.2238    1.0263 C   0  0  2  0  0  0  0  0  0  0  0  0
   31.2559   10.2933    0.3598 O   0  0  0  0  0  0  0  0  0  0  0  0
   33.5406   11.1114    0.5129 C   0  0  2  0  0  0  0  0  0  0  0  0
   33.5697   11.3647   -0.9863 N   0  0  0  0  0  0  0  0  0  0  0  0
   26.5125   13.8395   -2.6247 O   0  0  0  0  0  0  0  0  0  0  0  0
   34.1280    9.7241    0.8623 C   0  0  2  0  0  0  0  0  0  0  0  0
   21.9014   10.2831   -3.0026 N   0  0  0  0  0  0  0  0  0  0  0  0
   34.0695    9.4833    2.3789 C   0  0  2  0  0  0  0  0  0  0  0  0
   32.5866    9.5906    2.9347 C   0  0  2  0  0  0  0  0  0  0  0  0
   32.0298   10.9538    2.5200 O   0  0  0  0  0  0  0  0  0  0  0  0
   32.5423    9.4008    4.4786 C   0  0  0  0  0  0  0  0  0  0  0  0
   33.2847   10.3735    5.1974 N   0  0  0  0  0  0  0  0  0  0  0  0
   27.3734   12.0044   -0.5352 C   0  0  2  0  0  0  0  0  0  0  0  0
   25.9630   12.0952   -1.0143 N   0  0  0  0  0  0  0  0  0  0  0  0
   28.2068   11.2367   -1.6721 C   0  0  0  0  0  0  0  0  0  0  0  0
   29.7207   11.1179   -1.2568 C   0  0  2  0  0  0  0  0  0  0  0  0
   30.4912   10.3982   -2.2815 N   0  0  0  0  0  0  0  0  0  0  0  0
   29.8507   10.3494    0.0734 C   0  0  2  0  0  0  0  0  0  0  0  0
   29.0356   11.0787    1.2165 C   0  0  2  0  0  0  0  0  0  0  0  0
   29.2291   10.2753    2.4399 O   0  0  0  0  0  0  0  0  0  0  0  0
   27.4793   11.1289    0.7963 C   0  0  1  0  0  0  0  0  0  0  0  0
   26.7787   11.7665    1.8172 O   0  0  0  0  0  0  0  0  0  0  0  0
   28.4010   10.1406    3.4191 C   0  0  1  0  0  0  0  0  0  0  0  0
   28.8083    9.1076    4.5107 C   0  0  2  0  0  0  0  0  0  0  0  0
   28.2683    7.8723    4.1607 O   0  0  0  0  0  0  0  0  0  0  0  0
   28.0995    9.7061    5.6541 C   0  0  1  0  0  0  0  0  0  0  0  0
   28.2302   11.2571    5.5492 C   0  0  2  0  0  0  0  0  0  0  0  0
   28.1085   11.3743    4.1528 O   0  0  0  0  0  0  0  0  0  0  0  0
   29.4313   11.9282    6.2169 C   0  0  0  0  0  0  0  0  0  0  0  0
   30.5469   11.0990    5.9514 O   0  0  0  0  0  0  0  0  0  0  0  0
   26.0685    8.8282    6.7160 C   0  0  2  0  0  0  0  0  0  0  0  0
   26.6791    9.2365    5.5653 O   0  0  0  0  0  0  0  0  0  0  0  0
   24.6534    8.3897    6.4789 C   0  0  1  0  0  0  0  0  0  0  0  0
   26.5586   11.7422    9.8928 N   0  0  0  0  0  0  0  0  0  0  0  0
   23.8421   14.1103   -3.4434 O   0  0  0  0  0  0  0  0  0  0  0  0
   23.9948    7.9815    7.8536 C   0  0  2  0  0  0  0  0  0  0  0  0
   24.0253    9.1220    8.9293 C   0  0  1  0  0  0  0  0  0  0  0  0
   25.3963    9.5198    9.1473 C   0  0  1  0  0  0  0  0  0  0  0  0
   26.0532    9.9173    7.8390 O   0  0  0  0  0  0  0  0  0  0  0  0
   25.4717   10.7089   10.2025 C   0  0  0  0  0  0  0  0  0  0  0  0
   23.9040    9.4514    5.9334 N   0  0  0  0  0  0  0  0  0  0  0  0
   35.2165    9.6822    0.5162 O   0  0  0  0  0  0  0  0  0  0  0  0
   23.8971   11.8711   -3.0656 C   0  0  0  0  0  0  0  0  0  0  0  0
   23.4381   10.0198    8.5210 O   0  0  0  0  0  0  0  0  0  0  0  0
   24.5918    7.0999    8.2889 O   0  0  0  0  0  0  0  0  0  0  0  0
   25.6760   13.0939   -2.0955 C   0  0  0  0  0  0  0  0  0  0  0  0
   22.6129   11.4849   -2.7531 C   0  0  0  0  0  0  0  0  0  0  0  0
   24.1153   13.0641   -2.5138 C   0  0  1  0  0  0  0  0  0  0  0  0
   34.8575   10.4379    3.0462 F   0  0  0  0  0  0  0  0  0  0  0  0
  1  2  1  6  0  0  0
  1 10  1  0  0  0  0
  1  3  1  0  0  0  0
  3  4  1  6  0  0  0
  3  6  1  0  0  0  0
  5 46  2  0  0  0  0
  6 42  1  1  0  0  0
  6  8  1  0  0  0  0
  7 47  1  0  0  0  0
  8  9  1  0  0  0  0
  8 49  1  1  0  0  0
  9 10  1  0  0  0  0
  9 11  1  1  0  0  0
 11 12  1  0  0  0  0
 13 14  1  6  0  0  0
 13 15  1  0  0  0  0
 13 21  1  0  0  0  0
 14 46  1  0  0  0  0
 15 16  1  0  0  0  0
 16 17  1  6  0  0  0
 16 18  1  0  0  0  0
 18  2  1  1  0  0  0
 18 19  1  0  0  0  0
 19 20  1  1  0  0  0
 19 21  1  0  0  0  0
 21 22  1  1  0  0  0
 23 20  1  6  0  0  0
 23 24  1  0  0  0  0
 23 28  1  0  0  0  0
 24 25  1  6  0  0  0
 24 26  1  0  0  0  0
 26 27  1  0  0  0  0
 26 32  1  6  0  0  0
 27 28  1  0  0  0  0
 27 29  1  6  0  0  0
 29 30  1  0  0  0  0
 31 32  1  6  0  0  0
 31 33  1  0  0  0  0
 31 39  1  0  0  0  0
 33 36  1  0  0  0  0
 33 41  1  1  0  0  0
 34 40  1  0  0  0  0
 35 48  1  0  0  0  0
 36 37  1  0  0  0  0
 36 45  1  1  0  0  0
 37 38  1  0  0  0  0
 37 44  1  6  0  0  0
 38 39  1  0  0  0  0
 38 40  1  1  0  0  0
 43 47  1  0  0  0  0
 46 48  1  0  0  0  0
 48 43  1  6  0  0  0
M  END
>  <CHROM.1>
-152.47044006,86.55423152,60.99311149,-74.68664951,-149.81869649,173.69337612
136.60474849,41.22320747,179.86297215,-143.37792418,-175.17311437,-94.18071256
-6.70005088,28.25252674,10.55938765,2.83865180,-1.19403298,-0.06606693,1.81171329

>  <Name>
ligand

>  <RI>
0

>  <Rbt.Current_Directory>
/home/itssahil/PROJECTS/Mol_Feturizer/New_Systems/rnas/4PDQ

>  <Rbt.Executable>
rbdock ($Id: //depot/dev/client3/rdock/2013.1/src/exe/rbdock.cxx#4 $)

>  <Rbt.Library>
libRbt.so (2013.1, Build901 2013/11/27)

>  <Rbt.Parameter_File>
/export/apps/rDock/src/rDock_2013.1_src/data/scripts/dock_solv.prm

>  <Rbt.Receptor>
prm/pocket_docking_3.prm

>  <SCORE>
-0.966211

>  <SCORE.INTER>
1.84216

>  <SCORE.INTER.CONST>
1

>  <SCORE.INTER.POLAR>
0

>  <SCORE.INTER.ROT>
13

>  <SCORE.INTER.SOLV>
28.9061

>  <SCORE.INTER.VDW>
-20.6739

>  <SCORE.INTER.norm>
0.0375951

>  <SCORE.INTRA>
-2.90671

>  <SCORE.INTRA.DIHEDRAL>
-9.69312

>  <SCORE.INTRA.DIHEDRAL.0>
34.5115

>  <SCORE.INTRA.POLAR>
0

>  <SCORE.INTRA.POLAR.0>
0

>  <SCORE.INTRA.REPUL>
0.00850551

>  <SCORE.INTRA.REPUL.0>
0

>  <SCORE.INTRA.SOLV>
0.746375

>  <SCORE.INTRA.SOLV.lig_0>
-122.812

>  <SCORE.INTRA.VDW>
1.52414

>  <SCORE.INTRA.VDW.0>
-7.46208

>  <SCORE.INTRA.norm>
-0.0593206

>  <SCORE.RESTR>
0.0983355

>  <SCORE.RESTR.CAVITY>
0.0983355

>  <SCORE.RESTR.norm>
0.00200685

>  <SCORE.SYSTEM>
0

>  <SCORE.SYSTEM.CONST>
0

>  <SCORE.SYSTEM.DIHEDRAL>
0

>  <SCORE.SYSTEM.SOLV>
0

>  <SCORE.SYSTEM.norm>
0

>  <SCORE.heavy>
49

>  <SCORE.norm>
-0.0197186

>  <RMSD>
7.442

$$$$
ligand
 OpenBabel11021811513D
libRbt.so/2013.1/901 2013/11/27
 49 52  0  0  0  0  0  0  0  0999 V2000
   25.7885   12.5375    6.2261 C   0  0  2  0  0  0  0  0  0  0  0  0
   25.7249   12.1544    4.8841 O   0  0  0  0  0  0  0  0  0  0  0  0
   25.5438   14.0875    6.3479 C   0  0  2  0  0  0  0  0  0  0  0  0
   24.1804   14.4242    5.7648 N   0  0  0  0  0  0  0  0  0  0  0  0
   26.9501    7.0320    2.6101 O   0  0  0  0  0  0  0  0  0  0  0  0
   26.6715   14.8687    5.6338 C   0  0  2  0  0  0  0  0  0  0  0  0
   24.0346    3.1937    3.1021 N   0  0  0  0  0  0  0  0  0  0  0  0
   28.0399   14.4972    6.2263 C   0  0  2  0  0  0  0  0  0  0  0  0
   28.3219   12.9385    6.1231 C   0  0  2  0  0  0  0  0  0  0  0  0
   27.1573   12.2077    6.7938 O   0  0  0  0  0  0  0  0  0  0  0  0
   29.6841   12.5623    6.7747 C   0  0  0  0  0  0  0  0  0  0  0  0
   30.8128   13.0514    6.0671 N   0  0  0  0  0  0  0  0  0  0  0  0
   24.6307    8.7778    2.3932 C   0  0  2  0  0  0  0  0  0  0  0  0
   24.7591    7.4915    1.6476 N   0  0  0  0  0  0  0  0  0  0  0  0
   25.9385    9.6465    2.0592 C   0  0  0  0  0  0  0  0  0  0  0  0
   25.8735   11.0392    2.7901 C   0  0  2  0  0  0  0  0  0  0  0  0
   27.0762   11.8368    2.5081 N   0  0  0  0  0  0  0  0  0  0  0  0
   25.7747   10.8376    4.3154 C   0  0  2  0  0  0  0  0  0  0  0  0
   24.4961    9.9798    4.6792 C   0  0  2  0  0  0  0  0  0  0  0  0
   24.4887    9.8511    6.1498 O   0  0  0  0  0  0  0  0  0  0  0  0
   24.6188    8.5356    3.9717 C   0  0  1  0  0  0  0  0  0  0  0  0
   23.4895    7.7940    4.3099 O   0  0  0  0  0  0  0  0  0  0  0  0
   25.2629    9.1114    6.8683 C   0  0  1  0  0  0  0  0  0  0  0  0
   26.6934    9.6734    7.1174 C   0  0  2  0  0  0  0  0  0  0  0  0
   27.5270    9.1988    6.1076 O   0  0  0  0  0  0  0  0  0  0  0  0
   26.9677    9.0121    8.4041 C   0  0  1  0  0  0  0  0  0  0  0  0
   25.6542    9.0225    9.2456 C   0  0  2  0  0  0  0  0  0  0  0  0
   24.7440    8.7874    8.1993 O   0  0  0  0  0  0  0  0  0  0  0  0
   25.3914   10.2193   10.1608 C   0  0  0  0  0  0  0  0  0  0  0  0
   25.0784   11.3068    9.3110 O   0  0  0  0  0  0  0  0  0  0  0  0
   28.1340    6.9463    9.0329 C   0  0  2  0  0  0  0  0  0  0  0  0
   27.4360    7.6264    8.0771 O   0  0  0  0  0  0  0  0  0  0  0  0
   28.4670    5.5485    8.6009 C   0  0  1  0  0  0  0  0  0  0  0  0
   25.9058    5.4571   12.7305 N   0  0  0  0  0  0  0  0  0  0  0  0
   27.1774    5.2567    0.1976 O   0  0  0  0  0  0  0  0  0  0  0  0
   29.2256    4.8067    9.7688 C   0  0  2  0  0  0  0  0  0  0  0  0
   28.4248    4.7705   11.1165 C   0  0  1  0  0  0  0  0  0  0  0  0
   28.1250    6.1254   11.5163 C   0  0  1  0  0  0  0  0  0  0  0  0
   27.3948    6.8616   10.4090 O   0  0  0  0  0  0  0  0  0  0  0  0
   27.2726    6.1354   12.8603 C   0  0  0  0  0  0  0  0  0  0  0  0
   27.2840    4.8339    8.3249 N   0  0  0  0  0  0  0  0  0  0  0  0
   26.4935   15.9893    5.7710 O   0  0  0  0  0  0  0  0  0  0  0  0
   25.9598    4.3391    1.8815 C   0  0  0  0  0  0  0  0  0  0  0  0
   27.4397    4.2094   10.9366 O   0  0  0  0  0  0  0  0  0  0  0  0
   30.2027    5.3759    9.9796 O   0  0  0  0  0  0  0  0  0  0  0  0
   26.0177    6.7049    1.8622 C   0  0  0  0  0  0  0  0  0  0  0  0
   24.6427    4.1241    2.2204 C   0  0  0  0  0  0  0  0  0  0  0  0
   26.0018    5.3379    1.0005 C   0  0  1  0  0  0  0  0  0  0  0  0
   28.0893   14.8623    7.5834 F   0  0  0  0  0  0  0  0  0  0  0  0
  1  2  1  6  0  0  0
  1 10  1  0  0  0  0
  1  3  1  0  0  0  0
  3  4  1  6  0  0  0
  3  6  1  0  0  0  0
  5 46  2  0  0  0  0
  6 42  1  1  0  0  0
  6  8  1  0  0  0  0
  7 47  1  0  0  0  0
  8  9  1  0  0  0  0
  8 49  1  1  0  0  0
  9 10  1  0  0  0  0
  9 11  1  1  0  0  0
 11 12  1  0  0  0  0
 13 14  1  6  0  0  0
 13 15  1  0  0  0  0
 13 21  1  0  0  0  0
 14 46  1  0  0  0  0
 15 16  1  0  0  0  0
 16 17  1  1  0  0  0
 16 18  1  0  0  0  0
 18  2  1  1  0  0  0
 18 19  1  0  0  0  0
 19 20  1  1  0  0  0
 19 21  1  0  0  0  0
 21 22  1  6  0  0  0
 23 20  1  1  0  0  0
 23 24  1  0  0  0  0
 23 28  1  0  0  0  0
 24 25  1  6  0  0  0
 24 26  1  0  0  0  0
 26 27  1  0  0  0  0
 26 32  1  6  0  0  0
 27 28  1  0  0  0  0
 27 29  1  6  0  0  0
 29 30  1  0  0  0  0
 31 32  1  6  0  0  0
 31 33  1  0  0  0  0
 31 39  1  0  0  0  0
 33 36  1  0  0  0  0
 33 41  1  1  0  0  0
 34 40  1  0  0  0  0
 35 48  1  0  0  0  0
 36 37  1  0  0  0  0
 36 45  1  1  0  0  0
 37 38  1  0  0  0  0
 37 44  1  6  0  0  0
 38 39  1  0  0  0  0
 38 40  1  1  0  0  0
 43 47  1  0  0  0  0
 46 48  1  0  0  0  0
 48 43  1  1  0  0  0
M  END
>  <CHROM.1>
-174.23047512,-171.75464449,-68.47306180,53.87793006,-73.71930491,78.95905097
160.38196181,71.75297309,176.59305859,-62.51969200,179.84577274,-155.42737865
-54.65139180,26.56134818,9.02938703,6.36942628,-2.02614179,1.31932120,3.03616934

>  <Name>
ligand

>  <RI>
0

>  <Rbt.Current_Directory>
/home/itssahil/PROJECTS/Mol_Feturizer/New_Systems/rnas/4PDQ

>  <Rbt.Executable>
rbdock ($Id: //depot/dev/client3/rdock/2013.1/src/exe/rbdock.cxx#4 $)

>  <Rbt.Library>
libRbt.so (2013.1, Build901 2013/11/27)

>  <Rbt.Parameter_File>
/export/apps/rDock/src/rDock_2013.1_src/data/scripts/dock_solv.prm

>  <Rbt.Receptor>
prm/pocket_docking_8.prm

>  <SCORE>
-11.2238

>  <SCORE.INTER>
-1.13706

>  <SCORE.INTER.CONST>
1

>  <SCORE.INTER.POLAR>
0

>  <SCORE.INTER.ROT>
13

>  <SCORE.INTER.SOLV>
21.9929

>  <SCORE.INTER.VDW>
-20.3557

>  <SCORE.INTER.norm>
-0.0232053

>  <SCORE.INTRA>
-10.0867

>  <SCORE.INTRA.DIHEDRAL>
-24.5787

>  <SCORE.INTRA.DIHEDRAL.0>
34.5115

>  <SCORE.INTRA.POLAR>
0

>  <SCORE.INTRA.POLAR.0>
0

>  <SCORE.INTRA.REPUL>
0.100639

>  <SCORE.INTRA.REPUL.0>
0

>  <SCORE.INTRA.SOLV>
-0.535485

>  <SCORE.INTRA.SOLV.lig_0>
-122.812

>  <SCORE.INTRA.VDW>
1.96721

>  <SCORE.INTRA.VDW.0>
-7.46208

>  <SCORE.INTRA.norm>
-0.205851

>  <SCORE.RESTR>
0

>  <SCORE.RESTR.CAVITY>
0

>  <SCORE.RESTR.norm>
0

>  <SCORE.SYSTEM>
0

>  <SCORE.SYSTEM.CONST>
0

>  <SCORE.SYSTEM.DIHEDRAL>
0

>  <SCORE.SYSTEM.SOLV>
0

>  <SCORE.SYSTEM.norm>
0

>  <SCORE.heavy>
49

>  <SCORE.norm>
-0.229056

>  <RMSD>
7.458

$$$$
ligand
 OpenBabel11021811513D
libRbt.so/2013.1/901 2013/11/27
 49 52  0  0  0  0  0  0  0  0999 V2000
   33.5952    9.2262    1.9619 C   0  0  2  0  0  0  0  0  0  0  0  0
   33.0212    9.9458    0.9108 O   0  0  0  0  0  0  0  0  0  0  0  0
   35.0254    9.8011    2.2801 C   0  0  2  0  0  0  0  0  0  0  0  0
   34.9009   11.2708    2.6498 N   0  0  0  0  0  0  0  0  0  0  0  0
   26.8866   12.8305    0.0847 O   0  0  0  0  0  0  0  0  0  0  0  0
   35.9676    9.6015    1.0700 C   0  0  2  0  0  0  0  0  0  0  0  0
   24.1178   12.9641   -4.2287 N   0  0  0  0  0  0  0  0  0  0  0  0
   36.0616    8.1121    0.7032 C   0  0  2  0  0  0  0  0  0  0  0  0
   34.6358    7.4956    0.3769 C   0  0  2  0  0  0  0  0  0  0  0  0
   33.7254    7.7635    1.5769 O   0  0  0  0  0  0  0  0  0  0  0  0
   34.7320    5.9750    0.0608 C   0  0  0  0  0  0  0  0  0  0  0  0
   33.5034    5.3960   -0.3507 N   0  0  0  0  0  0  0  0  0  0  0  0
   29.2097   11.2558   -0.6889 C   0  0  2  0  0  0  0  0  0  0  0  0
   27.9077   11.2052   -1.4165 N   0  0  0  0  0  0  0  0  0  0  0  0
   30.3101   10.5892   -1.6487 C   0  0  0  0  0  0  0  0  0  0  0  0
   31.7276   10.6232   -0.9648 C   0  0  2  0  0  0  0  0  0  0  0  0
   32.7413    9.9968   -1.8262 N   0  0  0  0  0  0  0  0  0  0  0  0
   31.6930    9.8593    0.3740 C   0  0  2  0  0  0  0  0  0  0  0  0
   30.6134   10.4895    1.3437 C   0  0  2  0  0  0  0  0  0  0  0  0
   30.6638    9.6986    2.5892 O   0  0  0  0  0  0  0  0  0  0  0  0
   29.1623   10.3830    0.6478 C   0  0  1  0  0  0  0  0  0  0  0  0
   28.2263   10.9349    1.5189 O   0  0  0  0  0  0  0  0  0  0  0  0
   29.9967    9.9122    3.6719 C   0  0  1  0  0  0  0  0  0  0  0  0
   30.4221    9.0629    4.9057 C   0  0  2  0  0  0  0  0  0  0  0  0
   29.6573    7.8988    4.9144 O   0  0  0  0  0  0  0  0  0  0  0  0
   30.0056    9.9946    5.9671 C   0  0  1  0  0  0  0  0  0  0  0  0
   30.3426   11.4446    5.5007 C   0  0  2  0  0  0  0  0  0  0  0  0
   30.0121   11.2997    4.1413 O   0  0  0  0  0  0  0  0  0  0  0  0
   31.7220   12.0111    5.8405 C   0  0  0  0  0  0  0  0  0  0  0  0
   31.8416   13.2223    5.1185 O   0  0  0  0  0  0  0  0  0  0  0  0
   27.9251   10.4538    7.1852 C   0  0  2  0  0  0  0  0  0  0  0  0
   28.5366    9.7771    6.1696 O   0  0  0  0  0  0  0  0  0  0  0  0
   28.5409   10.1471    8.5186 C   0  0  1  0  0  0  0  0  0  0  0  0
   23.8083    9.0506    8.4529 N   0  0  0  0  0  0  0  0  0  0  0  0
   24.6092   10.9352   -1.2165 O   0  0  0  0  0  0  0  0  0  0  0  0
   27.7553   10.9202    9.6479 C   0  0  2  0  0  0  0  0  0  0  0  0
   26.2216   10.5956    9.6828 C   0  0  1  0  0  0  0  0  0  0  0  0
   25.6503   10.9077    8.3937 C   0  0  1  0  0  0  0  0  0  0  0  0
   26.3891   10.1762    7.2891 O   0  0  0  0  0  0  0  0  0  0  0  0
   24.0993   10.5517    8.3694 C   0  0  0  0  0  0  0  0  0  0  0  0
   28.4471    8.7668    8.7876 N   0  0  0  0  0  0  0  0  0  0  0  0
   37.0084    9.9891    1.3400 O   0  0  0  0  0  0  0  0  0  0  0  0
   24.8801   13.1141   -1.7987 C   0  0  0  0  0  0  0  0  0  0  0  0
   26.0943    9.4727    9.8838 O   0  0  0  0  0  0  0  0  0  0  0  0
   27.8504   12.0480    9.4424 O   0  0  0  0  0  0  0  0  0  0  0  0
   26.8030   12.0736   -0.8929 C   0  0  0  0  0  0  0  0  0  0  0  0
   23.9659   13.1329   -2.8282 C   0  0  0  0  0  0  0  0  0  0  0  0
   25.4680   11.9185   -1.7903 C   0  0  1  0  0  0  0  0  0  0  0  0
   36.6168    7.3892    1.7739 F   0  0  0  0  0  0  0  0  0  0  0  0
  1  2  1  6  0  0  0
  1 10  1  0  0  0  0
  1  3  1  0  0  0  0
  3  4  1  6  0  0  0
  3  6  1  0  0  0  0
  5 46  2  0  0  0  0
  6 42  1  1  0  0  0
  6  8  1  0  0  0  0
  7 47  1  0  0  0  0
  8  9  1  0  0  0  0
  8 49  1  1  0  0  0
  9 10  1  0  0  0  0
  9 11  1  1  0  0  0
 11 12  1  0  0  0  0
 13 14  1  6  0  0  0
 13 15  1  0  0  0  0
 13 21  1  0  0  0  0
 14 46  1  0  0  0  0
 15 16  1  0  0  0  0
 16 17  1  6  0  0  0
 16 18  1  0  0  0  0
 18  2  1  1  0  0  0
 18 19  1  0  0  0  0
 19 20  1  1  0  0  0
 19 21  1  0  0  0  0
 21 22  1  1  0  0  0
 23 20  1  6  0  0  0
 23 24  1  0  0  0  0
 23 28  1  0  0  0  0
 24 25  1  1  0  0  0
 24 26  1  0  0  0  0
 26 27  1  0  0  0  0
 26 32  1  6  0  0  0
 27 28  1  0  0  0  0
 27 29  1  6  0  0  0
 29 30  1  0  0  0  0
 31 32  1  6  0  0  0
 31 33  1  0  0  0  0
 31 39  1  0  0  0  0
 33 36  1  0  0  0  0
 33 41  1  1  0  0  0
 34 40  1  0  0  0  0
 35 48  1  0  0  0  0
 36 37  1  0  0  0  0
 36 45  1  6  0  0  0
 37 38  1  0  0  0  0
 37 44  1  6  0  0  0
 38 39  1  0  0  0  0
 38 40  1  1  0  0  0
 43 47  1  0  0  0  0
 46 48  1  0  0  0  0
 48 43  1  1  0  0  0
M  END
>  <CHROM.1>
-173.45282616,-166.68476291,-174.85766571,-164.57388197,176.20912211,-170.19465251
174.88722374,170.34728409,-58.46232493,-67.56510018,-60.09226650,-77.00748976
-86.81345032,29.88776657,10.22414361,2.95285999,-0.79725918,-0.30738751,1.68226817

>  <Name>
ligand

>  <RI>
0

>  <Rbt.Current_Directory>
/home/itssahil/PROJECTS/Mol_Feturizer/New_Systems/rnas/4PDQ

>  <Rbt.Executable>
rbdock ($Id: //depot/dev/client3/rdock/2013.1/src/exe/rbdock.cxx#4 $)

>  <Rbt.Library>
libRbt.so (2013.1, Build901 2013/11/27)

>  <Rbt.Parameter_File>
/export/apps/rDock/src/rDock_2013.1_src/data/scripts/dock_solv.prm

>  <Rbt.Receptor>
prm/pocket_docking_4.prm

>  <SCORE>
-14.0825

>  <SCORE.INTER>
-1.59852

>  <SCORE.INTER.CONST>
1

>  <SCORE.INTER.POLAR>
0

>  <SCORE.INTER.ROT>
13

>  <SCORE.INTER.SOLV>
21.3675

>  <SCORE.INTER.VDW>
-20.4548

>  <SCORE.INTER.norm>
-0.0326228

>  <SCORE.INTRA>
-12.4891

>  <SCORE.INTRA.DIHEDRAL>
-29.1315

>  <SCORE.INTRA.DIHEDRAL.0>
34.5115

>  <SCORE.INTRA.POLAR>
0

>  <SCORE.INTRA.POLAR.0>
0

>  <SCORE.INTRA.REPUL>
0

>  <SCORE.INTRA.REPUL.0>
0

>  <SCORE.INTRA.SOLV>
-1.74163

>  <SCORE.INTRA.SOLV.lig_0>
-122.812

>  <SCORE.INTRA.VDW>
2.94742

>  <SCORE.INTRA.VDW.0>
-7.46208

>  <SCORE.INTRA.norm>
-0.254881

>  <SCORE.RESTR>
0.00517051

>  <SCORE.RESTR.CAVITY>
0.00517051

>  <SCORE.RESTR.norm>
0.000105521

>  <SCORE.SYSTEM>
0

>  <SCORE.SYSTEM.CONST>
0

>  <SCORE.SYSTEM.DIHEDRAL>
0

>  <SCORE.SYSTEM.SOLV>
0

>  <SCORE.SYSTEM.norm>
0

>  <SCORE.heavy>
49

>  <SCORE.norm>
-0.287398

>  <RMSD>
7.461

$$$$
ligand
 OpenBabel11021811513D
libRbt.so/2013.1/901 2013/11/27
 49 52  0  0  0  0  0  0  0  0999 V2000
   26.2794    7.5747    5.1254 C   0  0  2  0  0  0  0  0  0  0  0  0
   25.6037    7.3162    3.9302 O   0  0  0  0  0  0  0  0  0  0  0  0
   26.8279    6.2279    5.7273 C   0  0  2  0  0  0  0  0  0  0  0  0
   27.7627    5.5761    4.7203 N   0  0  0  0  0  0  0  0  0  0  0  0
   26.4129   11.7634   -1.2093 O   0  0  0  0  0  0  0  0  0  0  0  0
   25.6574    5.2886    6.1008 C   0  0  2  0  0  0  0  0  0  0  0  0
   24.6555   13.1859   -5.9904 N   0  0  0  0  0  0  0  0  0  0  0  0
   24.7169    5.9759    7.1031 C   0  0  2  0  0  0  0  0  0  0  0  0
   24.1441    7.3413    6.5310 C   0  0  2  0  0  0  0  0  0  0  0  0
   25.3338    8.2139    6.1265 O   0  0  0  0  0  0  0  0  0  0  0  0
   23.2371    8.0587    7.5723 C   0  0  0  0  0  0  0  0  0  0  0  0
   23.9421    8.5623    8.6963 N   0  0  0  0  0  0  0  0  0  0  0  0
   25.0678    9.7085    0.3535 C   0  0  2  0  0  0  0  0  0  0  0  0
   24.3829   10.5162   -0.6979 N   0  0  0  0  0  0  0  0  0  0  0  0
   24.1685    8.4024    0.6022 C   0  0  0  0  0  0  0  0  0  0  0  0
   24.8346    7.4759    1.6868 C   0  0  2  0  0  0  0  0  0  0  0  0
   24.0096    6.2851    1.9383 N   0  0  0  0  0  0  0  0  0  0  0  0
   24.9964    8.2406    3.0157 C   0  0  2  0  0  0  0  0  0  0  0  0
   25.8760    9.5386    2.8044 C   0  0  2  0  0  0  0  0  0  0  0  0
   25.9767   10.1899    4.1254 O   0  0  0  0  0  0  0  0  0  0  0  0
   25.1394   10.4997    1.7390 C   0  0  1  0  0  0  0  0  0  0  0  0
   25.9241   11.6383    1.5730 O   0  0  0  0  0  0  0  0  0  0  0  0
   26.9898   10.8315    4.5994 C   0  0  1  0  0  0  0  0  0  0  0  0
   27.6778   11.8265    3.6189 C   0  0  2  0  0  0  0  0  0  0  0  0
   28.6906   11.1440    2.9494 O   0  0  0  0  0  0  0  0  0  0  0  0
   28.2215   12.7700    4.6101 C   0  0  1  0  0  0  0  0  0  0  0  0
   27.1649   12.9461    5.7441 C   0  0  2  0  0  0  0  0  0  0  0  0
   26.7132   11.6155    5.8054 O   0  0  0  0  0  0  0  0  0  0  0  0
   26.1147   14.0470    5.5892 C   0  0  0  0  0  0  0  0  0  0  0  0
   25.3744   13.7274    4.4262 O   0  0  0  0  0  0  0  0  0  0  0  0
   29.4525   11.3464    6.1852 C   0  0  2  0  0  0  0  0  0  0  0  0
   29.5062   12.1748    5.1016 O   0  0  0  0  0  0  0  0  0  0  0  0
   29.2681   12.1048    7.4666 C   0  0  1  0  0  0  0  0  0  0  0  0
   32.3102    7.8604    6.2400 N   0  0  0  0  0  0  0  0  0  0  0  0
   23.9147   13.5832   -2.0146 O   0  0  0  0  0  0  0  0  0  0  0  0
   29.2664   11.0932    8.6777 C   0  0  2  0  0  0  0  0  0  0  0  0
   30.5600   10.2111    8.7630 C   0  0  1  0  0  0  0  0  0  0  0  0
   30.7105    9.4845    7.5240 C   0  0  1  0  0  0  0  0  0  0  0  0
   30.7148   10.4357    6.3423 O   0  0  0  0  0  0  0  0  0  0  0  0
   32.0380    8.6070    7.5490 C   0  0  0  0  0  0  0  0  0  0  0  0
   30.3354   13.0064    7.6518 N   0  0  0  0  0  0  0  0  0  0  0  0
   26.0791    4.3366    6.5722 O   0  0  0  0  0  0  0  0  0  0  0  0
   25.1287   12.4790   -3.5853 C   0  0  0  0  0  0  0  0  0  0  0  0
   31.4633   10.9064    8.8982 O   0  0  0  0  0  0  0  0  0  0  0  0
   28.3818   10.3709    8.5398 O   0  0  0  0  0  0  0  0  0  0  0  0
   25.2112   11.5407   -1.4142 C   0  0  0  0  0  0  0  0  0  0  0  0
   24.3687   12.9862   -4.6154 C   0  0  0  0  0  0  0  0  0  0  0  0
   24.3357   12.3205   -2.5263 C   0  0  1  0  0  0  0  0  0  0  0  0
   25.4089    6.2563    8.2946 F   0  0  0  0  0  0  0  0  0  0  0  0
  1  2  1  6  0  0  0
  1 10  1  0  0  0  0
  1  3  1  0  0  0  0
  3  4  1  6  0  0  0
  3  6  1  0  0  0  0
  5 46  2  0  0  0  0
  6 42  1  1  0  0  0
  6  8  1  0  0  0  0
  7 47  1  0  0  0  0
  8  9  1  0  0  0  0
  8 49  1  1  0  0  0
  9 10  1  0  0  0  0
  9 11  1  1  0  0  0
 11 12  1  0  0  0  0
 13 14  1  6  0  0  0
 13 15  1  0  0  0  0
 13 21  1  0  0  0  0
 14 46  1  0  0  0  0
 15 16  1  0  0  0  0
 16 17  1  1  0  0  0
 16 18  1  0  0  0  0
 18  2  1  1  0  0  0
 18 19  1  0  0  0  0
 19 20  1  1  0  0  0
 19 21  1  0  0  0  0
 21 22  1  6  0  0  0
 23 20  1  6  0  0  0
 23 24  1  0  0  0  0
 23 28  1  0  0  0  0
 24 25  1  1  0  0  0
 24 26  1  0  0  0  0
 26 27  1  0  0  0  0
 26 32  1  1  0  0  0
 27 28  1  0  0  0  0
 27 29  1  6  0  0  0
 29 30  1  0  0  0  0
 31 32  1  6  0  0  0
 31 33  1  0  0  0  0
 31 39  1  0  0  0  0
 33 36  1  0  0  0  0
 33 41  1  1  0  0  0
 34 40  1  0  0  0  0
 35 48  1  0  0  0  0
 36 37  1  0  0  0  0
 36 45  1  6  0  0  0
 37 38  1  0  0  0  0
 37 44  1  6  0  0  0
 38 39  1  0  0  0  0
 38 40  1  1  0  0  0
 43 47  1  0  0  0  0
 46 48  1  0  0  0  0
 48 43  1  6  0  0  0
M  END
>  <CHROM.1>
-177.01424227,161.31145377,68.84734295,-161.16283095,144.90821434,44.58953831
-89.91512163,61.70788100,-75.72898804,-176.96327410,-171.04169424,-68.14180744
-81.17931936,26.74949639,9.95196577,4.09116550,1.02754788,0.81790331,2.27311626

>  <Name>
ligand

>  <RI>
0

>  <Rbt.Current_Directory>
/home/itssahil/PROJECTS/Mol_Feturizer/New_Systems/rnas/4PDQ

>  <Rbt.Executable>
rbdock ($Id: //depot/dev/client3/rdock/2013.1/src/exe/rbdock.cxx#4 $)

>  <Rbt.Library>
libRbt.so (2013.1, Build901 2013/11/27)

>  <Rbt.Parameter_File>
/export/apps/rDock/src/rDock_2013.1_src/data/scripts/dock_solv.prm

>  <Rbt.Receptor>
prm/pocket_docking_6.prm

>  <SCORE>
-11.9095

>  <SCORE.INTER>
-7.39406

>  <SCORE.INTER.CONST>
1

>  <SCORE.INTER.POLAR>
0

>  <SCORE.INTER.ROT>
13

>  <SCORE.INTER.SOLV>
22.3978

>  <SCORE.INTER.VDW>
-24.662

>  <SCORE.INTER.norm>
-0.150899

>  <SCORE.INTRA>
-4.51543

>  <SCORE.INTRA.DIHEDRAL>
-19.2953

>  <SCORE.INTRA.DIHEDRAL.0>
34.5115

>  <SCORE.INTRA.POLAR>
0

>  <SCORE.INTRA.POLAR.0>
0

>  <SCORE.INTRA.REPUL>
0.13106

>  <SCORE.INTRA.REPUL.0>
0

>  <SCORE.INTRA.SOLV>
-1.30733

>  <SCORE.INTRA.SOLV.lig_0>
-122.812

>  <SCORE.INTRA.VDW>
5.1306

>  <SCORE.INTRA.VDW.0>
-7.46208

>  <SCORE.INTRA.norm>
-0.0921516

>  <SCORE.RESTR>
0

>  <SCORE.RESTR.CAVITY>
0

>  <SCORE.RESTR.norm>
0

>  <SCORE.SYSTEM>
0

>  <SCORE.SYSTEM.CONST>
0

>  <SCORE.SYSTEM.DIHEDRAL>
0

>  <SCORE.SYSTEM.SOLV>
0

>  <SCORE.SYSTEM.norm>
0

>  <SCORE.heavy>
49

>  <SCORE.norm>
-0.243051

>  <RMSD>
7.466

$$$$
ligand
 OpenBabel11021811513D
libRbt.so/2013.1/901 2013/11/27
 49 52  0  0  0  0  0  0  0  0999 V2000
   29.8233   10.3026    8.3036 C   0  0  2  0  0  0  0  0  0  0  0  0
   29.3985    9.5833    7.1837 O   0  0  0  0  0  0  0  0  0  0  0  0
   28.6963   10.2888    9.4022 C   0  0  2  0  0  0  0  0  0  0  0  0
   28.3886    8.8490    9.7825 N   0  0  0  0  0  0  0  0  0  0  0  0
   34.8465   10.5668    3.2205 O   0  0  0  0  0  0  0  0  0  0  0  0
   27.4336   11.0188    8.8879 C   0  0  2  0  0  0  0  0  0  0  0  0
   34.7409    5.8928    0.6585 N   0  0  0  0  0  0  0  0  0  0  0  0
   27.7735   12.4641    8.4915 C   0  0  2  0  0  0  0  0  0  0  0  0
   28.9099   12.5186    7.3845 C   0  0  2  0  0  0  0  0  0  0  0  0
   30.1158   11.7406    7.9144 O   0  0  0  0  0  0  0  0  0  0  0  0
   29.2878   13.9856    7.0286 C   0  0  0  0  0  0  0  0  0  0  0  0
   29.9047   14.6932    8.0930 N   0  0  0  0  0  0  0  0  0  0  0  0
   32.7820    8.9922    4.5369 C   0  0  2  0  0  0  0  0  0  0  0  0
   33.5807    8.4907    3.3804 N   0  0  0  0  0  0  0  0  0  0  0  0
   31.9924    7.7331    5.1433 C   0  0  0  0  0  0  0  0  0  0  0  0
   31.1378    8.1704    6.3910 C   0  0  2  0  0  0  0  0  0  0  0  0
   30.3935    7.0290    6.9435 N   0  0  0  0  0  0  0  0  0  0  0  0
   30.1231    9.2590    5.9881 C   0  0  2  0  0  0  0  0  0  0  0  0
   30.8697   10.5149    5.3814 C   0  0  2  0  0  0  0  0  0  0  0  0
   29.8199   11.4942    5.0375 O   0  0  0  0  0  0  0  0  0  0  0  0
   31.6841   10.0531    4.0681 C   0  0  1  0  0  0  0  0  0  0  0  0
   32.3269   11.1725    3.5452 O   0  0  0  0  0  0  0  0  0  0  0  0
   29.0931   11.5113    3.9724 C   0  0  1  0  0  0  0  0  0  0  0  0
   28.2709   10.2183    3.6952 C   0  0  2  0  0  0  0  0  0  0  0  0
   29.0440    9.3760    2.8997 O   0  0  0  0  0  0  0  0  0  0  0  0
   27.1648   10.8213    2.9331 C   0  0  1  0  0  0  0  0  0  0  0  0
   26.8119   12.1914    3.5902 C   0  0  2  0  0  0  0  0  0  0  0  0
   28.1185   12.6030    3.9092 O   0  0  0  0  0  0  0  0  0  0  0  0
   25.7680   12.2096    4.7077 C   0  0  0  0  0  0  0  0  0  0  0  0
   26.3485   11.5275    5.8033 O   0  0  0  0  0  0  0  0  0  0  0  0
   26.9914   10.2689    0.5481 C   0  0  2  0  0  0  0  0  0  0  0  0
   27.6498   10.9626    1.5220 O   0  0  0  0  0  0  0  0  0  0  0  0
   25.5651   10.7123    0.4056 C   0  0  1  0  0  0  0  0  0  0  0  0
   27.8117    5.7860   -0.0032 N   0  0  0  0  0  0  0  0  0  0  0  0
   36.3759    9.6331    1.0652 O   0  0  0  0  0  0  0  0  0  0  0  0
   24.8528    9.8370   -0.6974 C   0  0  2  0  0  0  0  0  0  0  0  0
   24.9047    8.2966   -0.4090 C   0  0  1  0  0  0  0  0  0  0  0  0
   26.2857    7.8924   -0.2859 C   0  0  1  0  0  0  0  0  0  0  0  0
   26.9941    8.7202    0.7695 O   0  0  0  0  0  0  0  0  0  0  0  0
   26.3852    6.3402    0.0514 C   0  0  0  0  0  0  0  0  0  0  0  0
   24.8780   10.5266    1.6220 N   0  0  0  0  0  0  0  0  0  0  0  0
   26.6465   11.0309    9.7164 O   0  0  0  0  0  0  0  0  0  0  0  0
   35.9653    7.6346    2.0639 C   0  0  0  0  0  0  0  0  0  0  0  0
   24.3688    8.0969    0.5862 O   0  0  0  0  0  0  0  0  0  0  0  0
   25.3985   10.0055   -1.6959 O   0  0  0  0  0  0  0  0  0  0  0  0
   34.6060    9.4233    2.8078 C   0  0  0  0  0  0  0  0  0  0  0  0
   35.1115    6.5768    1.8449 C   0  0  0  0  0  0  0  0  0  0  0  0
   35.3934    8.7347    1.5760 C   0  0  1  0  0  0  0  0  0  0  0  0
   28.2242   13.1762    9.6172 F   0  0  0  0  0  0  0  0  0  0  0  0
  1  2  1  6  0  0  0
  1 10  1  0  0  0  0
  1  3  1  0  0  0  0
  3  4  1  6  0  0  0
  3  6  1  0  0  0  0
  5 46  2  0  0  0  0
  6 42  1  1  0  0  0
  6  8  1  0  0  0  0
  7 47  1  0  0  0  0
  8  9  1  0  0  0  0
  8 49  1  1  0  0  0
  9 10  1  0  0  0  0
  9 11  1  1  0  0  0
 11 12  1  0  0  0  0
 13 14  1  6  0  0  0
 13 15  1  0  0  0  0
 13 21  1  0  0  0  0
 14 46  1  0  0  0  0
 15 16  1  0  0  0  0
 16 17  1  6  0  0  0
 16 18  1  0  0  0  0
 18  2  1  1  0  0  0
 18 19  1  0  0  0  0
 19 20  1  6  0  0  0
 19 21  1  0  0  0  0
 21 22  1  1  0  0  0
 23 20  1  1  0  0  0
 23 24  1  0  0  0  0
 23 28  1  0  0  0  0
 24 25  1  6  0  0  0
 24 26  1  0  0  0  0
 26 27  1  0  0  0  0
 26 32  1  6  0  0  0
 27 28  1  0  0  0  0
 27 29  1  1  0  0  0
 29 30  1  0  0  0  0
 31 32  1  1  0  0  0
 31 33  1  0  0  0  0
 31 39  1  0  0  0  0
 33 36  1  0  0  0  0
 33 41  1  1  0  0  0
 34 40  1  0  0  0  0
 35 48  1  0  0  0  0
 36 37  1  0  0  0  0
 36 45  1  6  0  0  0
 37 38  1  0  0  0  0
 37 44  1  1  0  0  0
 38 39  1  0  0  0  0
 38 40  1  1  0  0  0
 43 47  1  0  0  0  0
 46 48  1  0  0  0  0
 48 43  1  1  0  0  0
M  END
>  <CHROM.1>
-175.46168307,72.93889883,66.27863128,-168.65871109,-81.93178087,56.70651086
117.48524809,67.59856803,63.43785681,171.52863148,71.39551587,-146.86541647
0.05169522,29.35313851,10.01551441,4.09259324,-1.63773562,0.20659794,-1.96359820

>  <Name>
ligand

>  <RI>
0

>  <Rbt.Current_Directory>
/home/itssahil/PROJECTS/Mol_Feturizer/New_Systems/rnas/4PDQ

>  <Rbt.Executable>
rbdock ($Id: //depot/dev/client3/rdock/2013.1/src/exe/rbdock.cxx#4 $)

>  <Rbt.Library>
libRbt.so (2013.1, Build901 2013/11/27)

>  <Rbt.Parameter_File>
/export/apps/rDock/src/rDock_2013.1_src/data/scripts/dock_solv.prm

>  <Rbt.Receptor>
prm/pocket_docking_6.prm

>  <SCORE>
-10.423

>  <SCORE.INTER>
-4.37525

>  <SCORE.INTER.CONST>
1

>  <SCORE.INTER.POLAR>
0

>  <SCORE.INTER.ROT>
13

>  <SCORE.INTER.SOLV>
23.4606

>  <SCORE.INTER.VDW>
-23.0037

>  <SCORE.INTER.norm>
-0.0892908

>  <SCORE.INTRA>
-6.04778

>  <SCORE.INTRA.DIHEDRAL>
-19.1722

>  <SCORE.INTRA.DIHEDRAL.0>
34.5115

>  <SCORE.INTRA.POLAR>
0

>  <SCORE.INTRA.POLAR.0>
0

>  <SCORE.INTRA.REPUL>
0.074665

>  <SCORE.INTRA.REPUL.0>
0

>  <SCORE.INTRA.SOLV>
3.2509

>  <SCORE.INTRA.SOLV.lig_0>
-122.812

>  <SCORE.INTRA.VDW>
1.53954

>  <SCORE.INTRA.VDW.0>
-7.46208

>  <SCORE.INTRA.norm>
-0.123424

>  <SCORE.RESTR>
0

>  <SCORE.RESTR.CAVITY>
0

>  <SCORE.RESTR.norm>
0

>  <SCORE.SYSTEM>
0

>  <SCORE.SYSTEM.CONST>
0

>  <SCORE.SYSTEM.DIHEDRAL>
0

>  <SCORE.SYSTEM.SOLV>
0

>  <SCORE.SYSTEM.norm>
0

>  <SCORE.heavy>
49

>  <SCORE.norm>
-0.212715

>  <RMSD>
7.484

$$$$
ligand
 OpenBabel11021811513D
libRbt.so/2013.1/901 2013/11/27
 49 52  0  0  0  0  0  0  0  0999 V2000
   32.3876    7.3684    0.9480 C   0  0  2  0  0  0  0  0  0  0  0  0
   31.1933    6.7280    1.2879 O   0  0  0  0  0  0  0  0  0  0  0  0
   33.5688    6.3282    0.9565 C   0  0  2  0  0  0  0  0  0  0  0  0
   33.2620    5.2175   -0.0358 N   0  0  0  0  0  0  0  0  0  0  0  0
   27.3384   11.6671   -0.6117 O   0  0  0  0  0  0  0  0  0  0  0  0
   33.7830    5.7681    2.3820 C   0  0  2  0  0  0  0  0  0  0  0  0
   23.5950    8.7670   -1.1519 N   0  0  0  0  0  0  0  0  0  0  0  0
   34.0715    6.9098    3.3693 C   0  0  2  0  0  0  0  0  0  0  0  0
   32.9009    7.9817    3.3872 C   0  0  2  0  0  0  0  0  0  0  0  0
   32.6895    8.4665    1.9517 O   0  0  0  0  0  0  0  0  0  0  0  0
   33.2252    9.1626    4.3474 C   0  0  0  0  0  0  0  0  0  0  0  0
   34.0430   10.1662    3.7662 N   0  0  0  0  0  0  0  0  0  0  0  0
   28.0172    9.6779    1.4025 C   0  0  2  0  0  0  0  0  0  0  0  0
   26.6545   10.2705    1.2644 N   0  0  0  0  0  0  0  0  0  0  0  0
   28.3026    8.8400    0.0636 C   0  0  0  0  0  0  0  0  0  0  0  0
   29.7385    8.1967    0.1145 C   0  0  2  0  0  0  0  0  0  0  0  0
   30.0043    7.4093   -1.0984 N   0  0  0  0  0  0  0  0  0  0  0  0
   29.8617    7.2614    1.3339 C   0  0  2  0  0  0  0  0  0  0  0  0
   29.5815    8.0566    2.6726 C   0  0  2  0  0  0  0  0  0  0  0  0
   29.7303    7.0824    3.7717 O   0  0  0  0  0  0  0  0  0  0  0  0
   28.0824    8.6495    2.6227 C   0  0  1  0  0  0  0  0  0  0  0  0
   27.8527    9.3382    3.8112 O   0  0  0  0  0  0  0  0  0  0  0  0
   29.3689    7.2365    4.9999 C   0  0  1  0  0  0  0  0  0  0  0  0
   29.2987    5.9348    5.8516 C   0  0  2  0  0  0  0  0  0  0  0  0
   28.0064    5.4241    5.7560 O   0  0  0  0  0  0  0  0  0  0  0  0
   29.5529    6.5257    7.1761 C   0  0  1  0  0  0  0  0  0  0  0  0
   30.6339    7.6384    7.0126 C   0  0  2  0  0  0  0  0  0  0  0  0
   30.2040    8.1553    5.7771 O   0  0  0  0  0  0  0  0  0  0  0  0
   32.1051    7.2420    7.1441 C   0  0  0  0  0  0  0  0  0  0  0  0
   32.8346    8.4512    7.2349 O   0  0  0  0  0  0  0  0  0  0  0  0
   28.1467    7.4352    8.9702 C   0  0  2  0  0  0  0  0  0  0  0  0
   28.2392    7.0600    7.6610 O   0  0  0  0  0  0  0  0  0  0  0  0
   27.4227    6.4158    9.7995 C   0  0  1  0  0  0  0  0  0  0  0  0
   26.5445   11.3135   12.0855 N   0  0  0  0  0  0  0  0  0  0  0  0
   24.9249   13.2343   -0.0603 O   0  0  0  0  0  0  0  0  0  0  0  0
   27.3078    6.9357   11.2849 C   0  0  2  0  0  0  0  0  0  0  0  0
   26.5962    8.3272   11.4116 C   0  0  1  0  0  0  0  0  0  0  0  0
   27.3159    9.2923   10.6139 C   0  0  1  0  0  0  0  0  0  0  0  0
   27.4405    8.8154    9.1793 O   0  0  0  0  0  0  0  0  0  0  0  0
   26.6017   10.7132   10.6779 C   0  0  0  0  0  0  0  0  0  0  0  0
   26.1182    6.2261    9.3007 N   0  0  0  0  0  0  0  0  0  0  0  0
   34.6702    5.0476    2.3701 O   0  0  0  0  0  0  0  0  0  0  0  0
   24.3379   11.1898   -0.8574 C   0  0  0  0  0  0  0  0  0  0  0  0
   25.5294    8.2264   11.0001 O   0  0  0  0  0  0  0  0  0  0  0  0
   28.3720    7.0690   11.7010 O   0  0  0  0  0  0  0  0  0  0  0  0
   26.4631   11.2876    0.1792 C   0  0  0  0  0  0  0  0  0  0  0  0
   24.0490    9.9089   -0.4428 C   0  0  0  0  0  0  0  0  0  0  0  0
   24.9389   11.8238    0.1486 C   0  0  1  0  0  0  0  0  0  0  0  0
   35.2612    7.5665    3.0079 F   0  0  0  0  0  0  0  0  0  0  0  0
  1  2  1  1  0  0  0
  1 10  1  0  0  0  0
  1  3  1  0  0  0  0
  3  4  1  6  0  0  0
  3  6  1  0  0  0  0
  5 46  2  0  0  0  0
  6 42  1  6  0  0  0
  6  8  1  0  0  0  0
  7 47  1  0  0  0  0
  8  9  1  0  0  0  0
  8 49  1  6  0  0  0
  9 10  1  0  0  0  0
  9 11  1  1  0  0  0
 11 12  1  0  0  0  0
 13 14  1  6  0  0  0
 13 15  1  0  0  0  0
 13 21  1  0  0  0  0
 14 46  1  0  0  0  0
 15 16  1  0  0  0  0
 16 17  1  6  0  0  0
 16 18  1  0  0  0  0
 18  2  1  1  0  0  0
 18 19  1  0  0  0  0
 19 20  1  1  0  0  0
 19 21  1  0  0  0  0
 21 22  1  1  0  0  0
 23 20  1  6  0  0  0
 23 24  1  0  0  0  0
 23 28  1  0  0  0  0
 24 25  1  1  0  0  0
 24 26  1  0  0  0  0
 26 27  1  0  0  0  0
 26 32  1  6  0  0  0
 27 28  1  0  0  0  0
 27 29  1  6  0  0  0
 29 30  1  0  0  0  0
 31 32  1  6  0  0  0
 31 33  1  0  0  0  0
 31 39  1  0  0  0  0
 33 36  1  0  0  0  0
 33 41  1  6  0  0  0
 34 40  1  0  0  0  0
 35 48  1  0  0  0  0
 36 37  1  0  0  0  0
 36 45  1  6  0  0  0
 37 38  1  0  0  0  0
 37 44  1  6  0  0  0
 38 39  1  0  0  0  0
 38 40  1  6  0  0  0
 43 47  1  0  0  0  0
 46 48  1  0  0  0  0
 48 43  1  6  0  0  0
M  END
>  <CHROM.1>
-176.22300668,39.59899989,83.26419313,-65.07522134,-167.00266068,164.48739638
167.93244371,-168.06420545,-102.96076324,61.71860246,-169.77104491,-163.49457005
-42.53889377,29.26698112,8.24160931,4.41511319,-1.35832892,-0.40213964,1.72195326

>  <Name>
ligand

>  <RI>
0

>  <Rbt.Current_Directory>
/home/itssahil/PROJECTS/Mol_Feturizer/New_Systems/rnas/4PDQ

>  <Rbt.Executable>
rbdock ($Id: //depot/dev/client3/rdock/2013.1/src/exe/rbdock.cxx#4 $)

>  <Rbt.Library>
libRbt.so (2013.1, Build901 2013/11/27)

>  <Rbt.Parameter_File>
/export/apps/rDock/src/rDock_2013.1_src/data/scripts/dock_solv.prm

>  <Rbt.Receptor>
prm/pocket_docking_5.prm

>  <SCORE>
-11.2035

>  <SCORE.INTER>
-3.35932

>  <SCORE.INTER.CONST>
1

>  <SCORE.INTER.POLAR>
0

>  <SCORE.INTER.ROT>
13

>  <SCORE.INTER.SOLV>
26.8808

>  <SCORE.INTER.VDW>
-23.4665

>  <SCORE.INTER.norm>
-0.0685575

>  <SCORE.INTRA>
-7.84415

>  <SCORE.INTRA.DIHEDRAL>
-18.3968

>  <SCORE.INTRA.DIHEDRAL.0>
34.5115

>  <SCORE.INTRA.POLAR>
0

>  <SCORE.INTRA.POLAR.0>
0

>  <SCORE.INTRA.REPUL>
0

>  <SCORE.INTRA.REPUL.0>
0

>  <SCORE.INTRA.SOLV>
-1.30948

>  <SCORE.INTRA.SOLV.lig_0>
-122.812

>  <SCORE.INTRA.VDW>
2.00901

>  <SCORE.INTRA.VDW.0>
-7.46208

>  <SCORE.INTRA.norm>
-0.160085

>  <SCORE.RESTR>
0

>  <SCORE.RESTR.CAVITY>
0

>  <SCORE.RESTR.norm>
0

>  <SCORE.SYSTEM>
0

>  <SCORE.SYSTEM.CONST>
0

>  <SCORE.SYSTEM.DIHEDRAL>
0

>  <SCORE.SYSTEM.SOLV>
0

>  <SCORE.SYSTEM.norm>
0

>  <SCORE.heavy>
49

>  <SCORE.norm>
-0.228642

>  <RMSD>
7.512

$$$$
ligand
 OpenBabel11021811513D
libRbt.so/2013.1/901 2013/11/27
 49 52  0  0  0  0  0  0  0  0999 V2000
   28.8304   11.1378    8.1329 C   0  0  2  0  0  0  0  0  0  0  0  0
   28.8119   10.2330    7.0685 O   0  0  0  0  0  0  0  0  0  0  0  0
   27.9402   10.5911    9.3101 C   0  0  2  0  0  0  0  0  0  0  0  0
   28.4766    9.2393    9.7543 N   0  0  0  0  0  0  0  0  0  0  0  0
   31.6089    9.4899    2.0828 O   0  0  0  0  0  0  0  0  0  0  0  0
   26.4617   10.4935    8.8669 C   0  0  2  0  0  0  0  0  0  0  0  0
   36.3967   11.4623    0.4676 N   0  0  0  0  0  0  0  0  0  0  0  0
   25.9486   11.8661    8.4042 C   0  0  2  0  0  0  0  0  0  0  0  0
   26.8244   12.4516    7.2168 C   0  0  2  0  0  0  0  0  0  0  0  0
   28.2818   12.4793    7.6810 O   0  0  0  0  0  0  0  0  0  0  0  0
   26.3333   13.8656    6.7910 C   0  0  0  0  0  0  0  0  0  0  0  0
   27.1088   14.4553    5.7592 N   0  0  0  0  0  0  0  0  0  0  0  0
   32.3337   10.7679    4.5959 C   0  0  2  0  0  0  0  0  0  0  0  0
   33.2943   10.5717    3.4709 N   0  0  0  0  0  0  0  0  0  0  0  0
   31.9209    9.3082    5.1206 C   0  0  0  0  0  0  0  0  0  0  0  0
   30.9216    9.4228    6.3317 C   0  0  2  0  0  0  0  0  0  0  0  0
   30.5200    8.0912    6.8086 N   0  0  0  0  0  0  0  0  0  0  0  0
   29.6517   10.1863    5.9057 C   0  0  2  0  0  0  0  0  0  0  0  0
   30.0244   11.6305    5.3782 C   0  0  2  0  0  0  0  0  0  0  0  0
   28.7504   12.2768    5.0059 O   0  0  0  0  0  0  0  0  0  0  0  0
   30.9954   11.4837    4.0987 C   0  0  1  0  0  0  0  0  0  0  0  0
   31.3051   12.7635    3.6452 O   0  0  0  0  0  0  0  0  0  0  0  0
   27.8615   11.8262    4.1876 C   0  0  1  0  0  0  0  0  0  0  0  0
   28.4122   11.1529    2.8961 C   0  0  2  0  0  0  0  0  0  0  0  0
   28.5195   12.1307    1.9101 O   0  0  0  0  0  0  0  0  0  0  0  0
   27.2909   10.2357    2.6320 C   0  0  1  0  0  0  0  0  0  0  0  0
   26.7895    9.6750    3.9986 C   0  0  2  0  0  0  0  0  0  0  0  0
   26.9353   10.8475    4.7619 O   0  0  0  0  0  0  0  0  0  0  0  0
   27.4312    8.3941    4.5338 C   0  0  0  0  0  0  0  0  0  0  0  0
   27.0576    7.3611    3.6415 O   0  0  0  0  0  0  0  0  0  0  0  0
   26.1830   10.9340    0.5564 C   0  0  2  0  0  0  0  0  0  0  0  0
   26.2468   11.0379    1.9160 O   0  0  0  0  0  0  0  0  0  0  0  0
   26.1932   12.2767   -0.1131 C   0  0  1  0  0  0  0  0  0  0  0  0
   23.2883    9.0000   -3.3440 N   0  0  0  0  0  0  0  0  0  0  0  0
   33.6398    8.6614    0.2556 O   0  0  0  0  0  0  0  0  0  0  0  0
   26.0658   12.0839   -1.6741 C   0  0  2  0  0  0  0  0  0  0  0  0
   24.7893   11.2830   -2.1074 C   0  0  1  0  0  0  0  0  0  0  0  0
   24.8070    9.9927   -1.4590 C   0  0  1  0  0  0  0  0  0  0  0  0
   24.9294   10.1505    0.0448 O   0  0  0  0  0  0  0  0  0  0  0  0
   23.5042    9.1601   -1.8365 C   0  0  0  0  0  0  0  0  0  0  0  0
   25.0935   13.0423    0.3238 N   0  0  0  0  0  0  0  0  0  0  0  0
   25.8308   10.1338    9.7495 O   0  0  0  0  0  0  0  0  0  0  0  0
   33.9062   10.9104    0.4318 C   0  0  0  0  0  0  0  0  0  0  0  0
   23.8627   11.8625   -1.7567 O   0  0  0  0  0  0  0  0  0  0  0  0
   26.9748   11.4787   -2.0356 O   0  0  0  0  0  0  0  0  0  0  0  0
   32.7703    9.8921    2.2412 C   0  0  0  0  0  0  0  0  0  0  0  0
   35.0244   11.6317    0.7857 C   0  0  0  0  0  0  0  0  0  0  0  0
   33.9206    9.7654    1.1133 C   0  0  1  0  0  0  0  0  0  0  0  0
   25.9930   12.7792    9.4727 F   0  0  0  0  0  0  0  0  0  0  0  0
  1  2  1  6  0  0  0
  1 10  1  0  0  0  0
  1  3  1  0  0  0  0
  3  4  1  6  0  0  0
  3  6  1  0  0  0  0
  5 46  2  0  0  0  0
  6 42  1  1  0  0  0
  6  8  1  0  0  0  0
  7 47  1  0  0  0  0
  8  9  1  0  0  0  0
  8 49  1  1  0  0  0
  9 10  1  0  0  0  0
  9 11  1  1  0  0  0
 11 12  1  0  0  0  0
 13 14  1  6  0  0  0
 13 15  1  0  0  0  0
 13 21  1  0  0  0  0
 14 46  1  0  0  0  0
 15 16  1  0  0  0  0
 16 17  1  6  0  0  0
 16 18  1  0  0  0  0
 18  2  1  1  0  0  0
 18 19  1  0  0  0  0
 19 20  1  6  0  0  0
 19 21  1  0  0  0  0
 21 22  1  1  0  0  0
 23 20  1  1  0  0  0
 23 24  1  0  0  0  0
 23 28  1  0  0  0  0
 24 25  1  6  0  0  0
 24 26  1  0  0  0  0
 26 27  1  0  0  0  0
 26 32  1  1  0  0  0
 27 28  1  0  0  0  0
 27 29  1  1  0  0  0
 29 30  1  0  0  0  0
 31 32  1  1  0  0  0
 31 33  1  0  0  0  0
 31 39  1  0  0  0  0
 33 36  1  0  0  0  0
 33 41  1  1  0  0  0
 34 40  1  0  0  0  0
 35 48  1  0  0  0  0
 36 37  1  0  0  0  0
 36 45  1  1  0  0  0
 37 38  1  0  0  0  0
 37 44  1  1  0  0  0
 38 39  1  0  0  0  0
 38 40  1  1  0  0  0
 43 47  1  0  0  0  0
 46 48  1  0  0  0  0
 48 43  1  6  0  0  0
M  END
>  <CHROM.1>
-167.38642780,84.34376523,178.11700017,64.54977269,-55.09662272,-40.58762327
98.77297546,-66.48799243,-128.65281108,54.95821439,73.24936871,-133.34296685
-26.61408307,28.45438486,10.86681684,3.55067257,1.34088372,-0.08647016,1.52425761

>  <Name>
ligand

>  <RI>
0

>  <Rbt.Current_Directory>
/home/itssahil/PROJECTS/Mol_Feturizer/New_Systems/rnas/4PDQ

>  <Rbt.Executable>
rbdock ($Id: //depot/dev/client3/rdock/2013.1/src/exe/rbdock.cxx#4 $)

>  <Rbt.Library>
libRbt.so (2013.1, Build901 2013/11/27)

>  <Rbt.Parameter_File>
/export/apps/rDock/src/rDock_2013.1_src/data/scripts/dock_solv.prm

>  <Rbt.Receptor>
prm/pocket_docking_3.prm

>  <SCORE>
-1.97528

>  <SCORE.INTER>
0.535997

>  <SCORE.INTER.CONST>
1

>  <SCORE.INTER.POLAR>
0

>  <SCORE.INTER.ROT>
13

>  <SCORE.INTER.SOLV>
25.8187

>  <SCORE.INTER.VDW>
-20.5156

>  <SCORE.INTER.norm>
0.0109387

>  <SCORE.INTRA>
-3.36908

>  <SCORE.INTRA.DIHEDRAL>
-10.4091

>  <SCORE.INTRA.DIHEDRAL.0>
34.5115

>  <SCORE.INTRA.POLAR>
0

>  <SCORE.INTRA.POLAR.0>
0

>  <SCORE.INTRA.REPUL>
0

>  <SCORE.INTRA.REPUL.0>
0

>  <SCORE.INTRA.SOLV>
2.84868

>  <SCORE.INTRA.SOLV.lig_0>
-122.812

>  <SCORE.INTRA.VDW>
0.411113

>  <SCORE.INTRA.VDW.0>
-7.46208

>  <SCORE.INTRA.norm>
-0.0687568

>  <SCORE.RESTR>
0.857808

>  <SCORE.RESTR.CAVITY>
0.857808

>  <SCORE.RESTR.norm>
0.0175063

>  <SCORE.SYSTEM>
0

>  <SCORE.SYSTEM.CONST>
0

>  <SCORE.SYSTEM.DIHEDRAL>
0

>  <SCORE.SYSTEM.SOLV>
0

>  <SCORE.SYSTEM.norm>
0

>  <SCORE.heavy>
49

>  <SCORE.norm>
-0.0403118

>  <RMSD>
7.543

$$$$
ligand
 OpenBabel11021811513D
libRbt.so/2013.1/901 2013/11/27
 49 52  0  0  0  0  0  0  0  0999 V2000
   29.9473   10.7813    3.8293 C   0  0  2  0  0  0  0  0  0  0  0  0
   29.5349   12.0304    4.3001 O   0  0  0  0  0  0  0  0  0  0  0  0
   30.7405   10.9574    2.4813 C   0  0  2  0  0  0  0  0  0  0  0  0
   31.9431   11.8557    2.7243 N   0  0  0  0  0  0  0  0  0  0  0  0
   26.9522   12.8899    9.3668 O   0  0  0  0  0  0  0  0  0  0  0  0
   29.8165   11.5360    1.3843 C   0  0  2  0  0  0  0  0  0  0  0  0
   25.0139   15.7647    8.8516 N   0  0  0  0  0  0  0  0  0  0  0  0
   28.5996   10.6221    1.1709 C   0  0  2  0  0  0  0  0  0  0  0  0
   27.7744   10.4189    2.5115 C   0  0  2  0  0  0  0  0  0  0  0  0
   28.7384    9.8978    3.5790 O   0  0  0  0  0  0  0  0  0  0  0  0
   26.5762    9.4485    2.3008 C   0  0  0  0  0  0  0  0  0  0  0  0
   25.7870    9.2509    3.4636 N   0  0  0  0  0  0  0  0  0  0  0  0
   28.8905   14.4411    7.8464 C   0  0  2  0  0  0  0  0  0  0  0  0
   28.2657   14.9265    9.1117 N   0  0  0  0  0  0  0  0  0  0  0  0
   27.7000   14.2018    6.7967 C   0  0  0  0  0  0  0  0  0  0  0  0
   28.2757   13.7089    5.4169 C   0  0  2  0  0  0  0  0  0  0  0  0
   27.1926   13.4667    4.4525 N   0  0  0  0  0  0  0  0  0  0  0  0
   29.0585   12.3939    5.6042 C   0  0  2  0  0  0  0  0  0  0  0  0
   30.2390   12.5943    6.6382 C   0  0  2  0  0  0  0  0  0  0  0  0
   30.9253   11.2913    6.7405 O   0  0  0  0  0  0  0  0  0  0  0  0
   29.6176   13.0352    8.0597 C   0  0  1  0  0  0  0  0  0  0  0  0
   30.6702   13.1987    8.9568 O   0  0  0  0  0  0  0  0  0  0  0  0
   30.4960   10.2326    7.3387 C   0  0  1  0  0  0  0  0  0  0  0  0
   29.4889    9.3621    6.5309 C   0  0  2  0  0  0  0  0  0  0  0  0
   28.2009    9.7985    6.8319 O   0  0  0  0  0  0  0  0  0  0  0  0
   29.7797    8.0586    7.1509 C   0  0  1  0  0  0  0  0  0  0  0  0
   31.3184    7.9669    7.3907 C   0  0  2  0  0  0  0  0  0  0  0  0
   31.5418    9.3025    7.7710 O   0  0  0  0  0  0  0  0  0  0  0  0
   32.1908    7.3900    6.2750 C   0  0  0  0  0  0  0  0  0  0  0  0
   31.9430    8.1819    5.1286 O   0  0  0  0  0  0  0  0  0  0  0  0
   27.6878    7.6068    8.3524 C   0  0  2  0  0  0  0  0  0  0  0  0
   28.9903    8.0092    8.4240 O   0  0  0  0  0  0  0  0  0  0  0  0
   26.8843    8.0849    9.5258 C   0  0  1  0  0  0  0  0  0  0  0  0
   26.6163    3.2360    9.2674 N   0  0  0  0  0  0  0  0  0  0  0  0
   27.6304   14.4720   12.2018 O   0  0  0  0  0  0  0  0  0  0  0  0
   25.4074    7.5426    9.4043 C   0  0  2  0  0  0  0  0  0  0  0  0
   25.3171    5.9807    9.2984 C   0  0  1  0  0  0  0  0  0  0  0  0
   26.0890    5.5461    8.1579 C   0  0  1  0  0  0  0  0  0  0  0  0
   27.5148    6.0554    8.2504 O   0  0  0  0  0  0  0  0  0  0  0  0
   26.0615    3.9593    8.0370 C   0  0  0  0  0  0  0  0  0  0  0  0
   27.4356    7.5869   10.7234 N   0  0  0  0  0  0  0  0  0  0  0  0
   30.4032   11.6160    0.4067 O   0  0  0  0  0  0  0  0  0  0  0  0
   26.5415   15.9685   10.8847 C   0  0  0  0  0  0  0  0  0  0  0  0
   25.7719    5.5270   10.2497 O   0  0  0  0  0  0  0  0  0  0  0  0
   24.9484    7.9669    8.4387 O   0  0  0  0  0  0  0  0  0  0  0  0
   27.2808   14.0122    9.7771 C   0  0  0  0  0  0  0  0  0  0  0  0
   25.3702   16.1228   10.1774 C   0  0  0  0  0  0  0  0  0  0  0  0
   26.7042   14.6701   11.1358 C   0  0  1  0  0  0  0  0  0  0  0  0
   29.0224    9.3586    0.7212 F   0  0  0  0  0  0  0  0  0  0  0  0
  1  2  1  6  0  0  0
  1 10  1  0  0  0  0
  1  3  1  0  0  0  0
  3  4  1  1  0  0  0
  3  6  1  0  0  0  0
  5 46  2  0  0  0  0
  6 42  1  6  0  0  0
  6  8  1  0  0  0  0
  7 47  1  0  0  0  0
  8  9  1  0  0  0  0
  8 49  1  1  0  0  0
  9 10  1  0  0  0  0
  9 11  1  6  0  0  0
 11 12  1  0  0  0  0
 13 14  1  1  0  0  0
 13 15  1  0  0  0  0
 13 21  1  0  0  0  0
 14 46  1  0  0  0  0
 15 16  1  0  0  0  0
 16 17  1  6  0  0  0
 16 18  1  0  0  0  0
 18  2  1  6  0  0  0
 18 19  1  0  0  0  0
 19 20  1  1  0  0  0
 19 21  1  0  0  0  0
 21 22  1  1  0  0  0
 23 20  1  6  0  0  0
 23 24  1  0  0  0  0
 23 28  1  0  0  0  0
 24 25  1  1  0  0  0
 24 26  1  0  0  0  0
 26 27  1  0  0  0  0
 26 32  1  1  0  0  0
 27 28  1  0  0  0  0
 27 29  1  6  0  0  0
 29 30  1  0  0  0  0
 31 32  1  1  0  0  0
 31 33  1  0  0  0  0
 31 39  1  0  0  0  0
 33 36  1  0  0  0  0
 33 41  1  1  0  0  0
 34 40  1  0  0  0  0
 35 48  1  0  0  0  0
 36 37  1  0  0  0  0
 36 45  1  6  0  0  0
 37 38  1  0  0  0  0
 37 44  1  1  0  0  0
 38 39  1  0  0  0  0
 38 40  1  1  0  0  0
 43 47  1  0  0  0  0
 46 48  1  0  0  0  0
 48 43  1  6  0  0  0
M  END
>  <CHROM.1>
-164.62171556,-159.39470395,-178.83785654,60.46526418,-73.47353650,81.66921325
84.46121848,56.85692306,-158.12162910,-59.06445521,-69.77688714,-161.32898361
97.76681586,28.36495152,10.42527091,6.77804321,-0.12312272,-1.16970503,-2.95828961

>  <Name>
ligand

>  <RI>
0

>  <Rbt.Current_Directory>
/home/itssahil/PROJECTS/Mol_Feturizer/New_Systems/rnas/4PDQ

>  <Rbt.Executable>
rbdock ($Id: //depot/dev/client3/rdock/2013.1/src/exe/rbdock.cxx#4 $)

>  <Rbt.Library>
libRbt.so (2013.1, Build901 2013/11/27)

>  <Rbt.Parameter_File>
/export/apps/rDock/src/rDock_2013.1_src/data/scripts/dock_solv.prm

>  <Rbt.Receptor>
prm/pocket_docking_6.prm

>  <SCORE>
-7.4465

>  <SCORE.INTER>
-1.68067

>  <SCORE.INTER.CONST>
1

>  <SCORE.INTER.POLAR>
0

>  <SCORE.INTER.ROT>
13

>  <SCORE.INTER.SOLV>
15.6119

>  <SCORE.INTER.VDW>
-18.5911

>  <SCORE.INTER.norm>
-0.0342994

>  <SCORE.INTRA>
-5.89975

>  <SCORE.INTRA.DIHEDRAL>
-21.0075

>  <SCORE.INTRA.DIHEDRAL.0>
34.5115

>  <SCORE.INTRA.POLAR>
0

>  <SCORE.INTRA.POLAR.0>
0

>  <SCORE.INTRA.REPUL>
0.0590552

>  <SCORE.INTRA.REPUL.0>
0

>  <SCORE.INTRA.SOLV>
3.24724

>  <SCORE.INTRA.SOLV.lig_0>
-122.812

>  <SCORE.INTRA.VDW>
2.68513

>  <SCORE.INTRA.VDW.0>
-7.46208

>  <SCORE.INTRA.norm>
-0.120403

>  <SCORE.RESTR>
0.133923

>  <SCORE.RESTR.CAVITY>
0.133923

>  <SCORE.RESTR.norm>
0.00273311

>  <SCORE.SYSTEM>
0

>  <SCORE.SYSTEM.CONST>
0

>  <SCORE.SYSTEM.DIHEDRAL>
0

>  <SCORE.SYSTEM.SOLV>
0

>  <SCORE.SYSTEM.norm>
0

>  <SCORE.heavy>
49

>  <SCORE.norm>
-0.151969

>  <RMSD>
7.547

$$$$
ligand
 OpenBabel11021811513D
libRbt.so/2013.1/901 2013/11/27
 49 52  0  0  0  0  0  0  0  0999 V2000
   31.4490    8.5161    4.4099 C   0  0  2  0  0  0  0  0  0  0  0  0
   30.9753    9.1587    3.2633 O   0  0  0  0  0  0  0  0  0  0  0  0
   33.0201    8.4350    4.3622 C   0  0  2  0  0  0  0  0  0  0  0  0
   33.5892    9.8421    4.2701 N   0  0  0  0  0  0  0  0  0  0  0  0
   26.9363   12.5924   -0.6727 O   0  0  0  0  0  0  0  0  0  0  0  0
   33.4785    7.5617    3.1710 C   0  0  2  0  0  0  0  0  0  0  0  0
   22.4964    9.8278   -2.8850 N   0  0  0  0  0  0  0  0  0  0  0  0
   32.8753    6.1522    3.2757 C   0  0  2  0  0  0  0  0  0  0  0  0
   31.2894    6.1936    3.3281 C   0  0  2  0  0  0  0  0  0  0  0  0
   30.8840    7.1089    4.4848 O   0  0  0  0  0  0  0  0  0  0  0  0
   30.6879    4.7675    3.4900 C   0  0  0  0  0  0  0  0  0  0  0  0
   30.9315    3.9134    2.3831 N   0  0  0  0  0  0  0  0  0  0  0  0
   27.3561   10.9724    1.7093 C   0  0  2  0  0  0  0  0  0  0  0  0
   26.0361   11.0920    1.0234 N   0  0  0  0  0  0  0  0  0  0  0  0
   28.3041   10.0981    0.7538 C   0  0  0  0  0  0  0  0  0  0  0  0
   29.7340    9.9419    1.3935 C   0  0  2  0  0  0  0  0  0  0  0  0
   30.6063    9.1255    0.5366 N   0  0  0  0  0  0  0  0  0  0  0  0
   29.6309    9.2560    2.7705 C   0  0  2  0  0  0  0  0  0  0  0  0
   28.6981   10.0917    3.7372 C   0  0  2  0  0  0  0  0  0  0  0  0
   28.6712    9.3614    5.0199 O   0  0  0  0  0  0  0  0  0  0  0  0
   27.2234   10.1809    3.0901 C   0  0  1  0  0  0  0  0  0  0  0  0
   26.4166   10.9123    3.9584 O   0  0  0  0  0  0  0  0  0  0  0  0
   28.3121    9.8236    6.1689 C   0  0  1  0  0  0  0  0  0  0  0  0
   28.4629    8.8424    7.3686 C   0  0  2  0  0  0  0  0  0  0  0  0
   27.2656    8.1451    7.5106 O   0  0  0  0  0  0  0  0  0  0  0  0
   28.6446    9.8344    8.4414 C   0  0  1  0  0  0  0  0  0  0  0  0
   29.5339   10.9908    7.8887 C   0  0  2  0  0  0  0  0  0  0  0  0
   29.0060   11.0444    6.5860 O   0  0  0  0  0  0  0  0  0  0  0  0
   31.0512   10.8697    8.0363 C   0  0  0  0  0  0  0  0  0  0  0  0
   31.3093   10.7938    9.4257 O   0  0  0  0  0  0  0  0  0  0  0  0
   27.1638   11.1722    9.8700 C   0  0  2  0  0  0  0  0  0  0  0  0
   27.2721   10.2937    8.8309 O   0  0  0  0  0  0  0  0  0  0  0  0
   26.4203   10.5826   11.0322 C   0  0  1  0  0  0  0  0  0  0  0  0
   26.2399   15.4177    8.7750 N   0  0  0  0  0  0  0  0  0  0  0  0
   24.2695   13.2199   -1.5051 O   0  0  0  0  0  0  0  0  0  0  0  0
   26.2883   11.6653   12.1725 C   0  0  2  0  0  0  0  0  0  0  0  0
   25.5855   12.9874   11.7068 C   0  0  1  0  0  0  0  0  0  0  0  0
   26.3236   13.5405   10.5956 C   0  0  1  0  0  0  0  0  0  0  0  0
   26.4651   12.5177    9.4843 O   0  0  0  0  0  0  0  0  0  0  0  0
   25.6194   14.8637   10.0607 C   0  0  0  0  0  0  0  0  0  0  0  0
   25.1217   10.2067   10.6340 N   0  0  0  0  0  0  0  0  0  0  0  0
   34.6189    7.4849    3.1821 O   0  0  0  0  0  0  0  0  0  0  0  0
   24.4359   10.9608   -1.6755 C   0  0  0  0  0  0  0  0  0  0  0  0
   24.5239   12.7281   11.3556 O   0  0  0  0  0  0  0  0  0  0  0  0
   27.3474   11.9562   12.5146 O   0  0  0  0  0  0  0  0  0  0  0  0
   25.9793   11.9692   -0.1916 C   0  0  0  0  0  0  0  0  0  0  0  0
   23.1187   10.7741   -2.0306 C   0  0  0  0  0  0  0  0  0  0  0  0
   24.4932   11.9860   -0.8263 C   0  0  1  0  0  0  0  0  0  0  0  0
   33.3358    5.5196    4.4441 F   0  0  0  0  0  0  0  0  0  0  0  0
  1  2  1  6  0  0  0
  1 10  1  0  0  0  0
  1  3  1  0  0  0  0
  3  4  1  6  0  0  0
  3  6  1  0  0  0  0
  5 46  2  0  0  0  0
  6 42  1  1  0  0  0
  6  8  1  0  0  0  0
  7 47  1  0  0  0  0
  8  9  1  0  0  0  0
  8 49  1  1  0  0  0
  9 10  1  0  0  0  0
  9 11  1  1  0  0  0
 11 12  1  0  0  0  0
 13 14  1  6  0  0  0
 13 15  1  0  0  0  0
 13 21  1  0  0  0  0
 14 46  1  0  0  0  0
 15 16  1  0  0  0  0
 16 17  1  6  0  0  0
 16 18  1  0  0  0  0
 18  2  1  1  0  0  0
 18 19  1  0  0  0  0
 19 20  1  1  0  0  0
 19 21  1  0  0  0  0
 21 22  1  1  0  0  0
 23 20  1  6  0  0  0
 23 24  1  0  0  0  0
 23 28  1  0  0  0  0
 24 25  1  1  0  0  0
 24 26  1  0  0  0  0
 26 27  1  0  0  0  0
 26 32  1  6  0  0  0
 27 28  1  0  0  0  0
 27 29  1  6  0  0  0
 29 30  1  0  0  0  0
 31 32  1  6  0  0  0
 31 33  1  0  0  0  0
 31 39  1  0  0  0  0
 33 36  1  0  0  0  0
 33 41  1  6  0  0  0
 34 40  1  0  0  0  0
 35 48  1  0  0  0  0
 36 37  1  0  0  0  0
 36 45  1  6  0  0  0
 37 38  1  0  0  0  0
 37 44  1  6  0  0  0
 38 39  1  0  0  0  0
 38 40  1  6  0  0  0
 43 47  1  0  0  0  0
 46 48  1  0  0  0  0
 48 43  1  6  0  0  0
M  END
>  <CHROM.1>
168.30658703,-173.77535017,-64.93257399,-71.26926170,162.06003962,-176.67305259
176.46924981,-60.54394157,-115.97889237,-172.84757325,-179.30327004,-72.60117663
-28.80943640,28.38382667,10.09134723,5.06146674,-1.39305280,-0.60236125,1.40382515

>  <Name>
ligand

>  <RI>
0

>  <Rbt.Current_Directory>
/home/itssahil/PROJECTS/Mol_Feturizer/New_Systems/rnas/4PDQ

>  <Rbt.Executable>
rbdock ($Id: //depot/dev/client3/rdock/2013.1/src/exe/rbdock.cxx#4 $)

>  <Rbt.Library>
libRbt.so (2013.1, Build901 2013/11/27)

>  <Rbt.Parameter_File>
/export/apps/rDock/src/rDock_2013.1_src/data/scripts/dock_solv.prm

>  <Rbt.Receptor>
prm/pocket_docking_7.prm

>  <SCORE>
-16.0154

>  <SCORE.INTER>
-4.48716

>  <SCORE.INTER.CONST>
1

>  <SCORE.INTER.POLAR>
0

>  <SCORE.INTER.ROT>
13

>  <SCORE.INTER.SOLV>
24.5901

>  <SCORE.INTER.VDW>
-23.4548

>  <SCORE.INTER.norm>
-0.0915747

>  <SCORE.INTRA>
-11.5282

>  <SCORE.INTRA.DIHEDRAL>
-22.4413

>  <SCORE.INTRA.DIHEDRAL.0>
34.5115

>  <SCORE.INTRA.POLAR>
0

>  <SCORE.INTRA.POLAR.0>
0

>  <SCORE.INTRA.REPUL>
0

>  <SCORE.INTRA.REPUL.0>
0

>  <SCORE.INTRA.SOLV>
-5.1392

>  <SCORE.INTRA.SOLV.lig_0>
-122.812

>  <SCORE.INTRA.VDW>
2.26202

>  <SCORE.INTRA.VDW.0>
-7.46208

>  <SCORE.INTRA.norm>
-0.23527

>  <SCORE.RESTR>
0

>  <SCORE.RESTR.CAVITY>
0

>  <SCORE.RESTR.norm>
0

>  <SCORE.SYSTEM>
0

>  <SCORE.SYSTEM.CONST>
0

>  <SCORE.SYSTEM.DIHEDRAL>
0

>  <SCORE.SYSTEM.SOLV>
0

>  <SCORE.SYSTEM.norm>
0

>  <SCORE.heavy>
49

>  <SCORE.norm>
-0.326845

>  <RMSD>
7.569

$$$$
ligand
 OpenBabel11021811513D
libRbt.so/2013.1/901 2013/11/27
 49 52  0  0  0  0  0  0  0  0999 V2000
   29.6365   10.5531    5.0257 C   0  0  2  0  0  0  0  0  0  0  0  0
   29.4909    9.8873    3.8060 O   0  0  0  0  0  0  0  0  0  0  0  0
   31.1444   10.9522    5.2359 C   0  0  2  0  0  0  0  0  0  0  0  0
   31.5884   11.8455    4.0882 N   0  0  0  0  0  0  0  0  0  0  0  0
   25.7340   11.1648   -1.8418 O   0  0  0  0  0  0  0  0  0  0  0  0
   32.0271    9.6865    5.3399 C   0  0  2  0  0  0  0  0  0  0  0  0
   21.9556   12.3186   -3.3952 N   0  0  0  0  0  0  0  0  0  0  0  0
   31.5473    8.7910    6.4929 C   0  0  2  0  0  0  0  0  0  0  0  0
   30.0273    8.3688    6.3163 C   0  0  2  0  0  0  0  0  0  0  0  0
   29.2019    9.6479    6.1643 O   0  0  0  0  0  0  0  0  0  0  0  0
   29.5326    7.5086    7.5150 C   0  0  0  0  0  0  0  0  0  0  0  0
   30.2492    6.2954    7.6845 N   0  0  0  0  0  0  0  0  0  0  0  0
   26.6079    9.7862    0.5687 C   0  0  2  0  0  0  0  0  0  0  0  0
   25.4661    9.3205   -0.2719 N   0  0  0  0  0  0  0  0  0  0  0  0
   27.5000    8.4951    0.9055 C   0  0  0  0  0  0  0  0  0  0  0  0
   28.7481    8.9020    1.7744 C   0  0  2  0  0  0  0  0  0  0  0  0
   29.5629    7.7241    2.1068 N   0  0  0  0  0  0  0  0  0  0  0  0
   28.2902    9.5595    3.0916 C   0  0  2  0  0  0  0  0  0  0  0  0
   27.4032   10.8354    2.7947 C   0  0  2  0  0  0  0  0  0  0  0  0
   27.0250   11.3916    4.1089 O   0  0  0  0  0  0  0  0  0  0  0  0
   26.0994   10.3814    1.9607 C   0  0  1  0  0  0  0  0  0  0  0  0
   25.3289   11.5156    1.7166 O   0  0  0  0  0  0  0  0  0  0  0  0
   26.2661   10.8423    4.9950 C   0  0  1  0  0  0  0  0  0  0  0  0
   24.7358   11.0498    4.7957 C   0  0  2  0  0  0  0  0  0  0  0  0
   24.3603   12.1968    5.4909 O   0  0  0  0  0  0  0  0  0  0  0  0
   24.2599    9.8281    5.4657 C   0  0  1  0  0  0  0  0  0  0  0  0
   25.2360    8.6653    5.1070 C   0  0  2  0  0  0  0  0  0  0  0  0
   26.4381    9.3950    5.1416 O   0  0  0  0  0  0  0  0  0  0  0  0
   24.9436    7.8360    3.8558 C   0  0  0  0  0  0  0  0  0  0  0  0
   25.9241    6.8162    3.8183 O   0  0  0  0  0  0  0  0  0  0  0  0
   25.4009   10.0080    7.6312 C   0  0  2  0  0  0  0  0  0  0  0  0
   24.2344   10.1320    6.9331 O   0  0  0  0  0  0  0  0  0  0  0  0
   25.1657    9.5938    9.0540 C   0  0  1  0  0  0  0  0  0  0  0  0
   28.5914   13.1109    6.8818 N   0  0  0  0  0  0  0  0  0  0  0  0
   23.6088    8.1963   -1.8001 O   0  0  0  0  0  0  0  0  0  0  0  0
   26.5475    9.5199    9.8126 C   0  0  2  0  0  0  0  0  0  0  0  0
   27.3581   10.8617    9.7761 C   0  0  1  0  0  0  0  0  0  0  0  0
   27.5801   11.2341    8.3986 C   0  0  1  0  0  0  0  0  0  0  0  0
   26.2653   11.3118    7.6460 O   0  0  0  0  0  0  0  0  0  0  0  0
   28.3635   12.6168    8.3133 C   0  0  0  0  0  0  0  0  0  0  0  0
   24.3589   10.5470    9.7072 N   0  0  0  0  0  0  0  0  0  0  0  0
   33.1088   10.0012    5.5328 O   0  0  0  0  0  0  0  0  0  0  0  0
   22.8544   10.3191   -2.0905 C   0  0  0  0  0  0  0  0  0  0  0  0
   26.7305   11.6770   10.2850 O   0  0  0  0  0  0  0  0  0  0  0  0
   27.1985    8.7257    9.2944 O   0  0  0  0  0  0  0  0  0  0  0  0
   25.1346   10.1416   -1.4821 C   0  0  0  0  0  0  0  0  0  0  0  0
   22.8642   11.2753   -3.0812 C   0  0  0  0  0  0  0  0  0  0  0  0
   23.8896    9.5049   -2.2922 C   0  0  1  0  0  0  0  0  0  0  0  0
   31.6726    9.4752    7.7150 F   0  0  0  0  0  0  0  0  0  0  0  0
  1  2  1  6  0  0  0
  1 10  1  0  0  0  0
  1  3  1  0  0  0  0
  3  4  1  6  0  0  0
  3  6  1  0  0  0  0
  5 46  2  0  0  0  0
  6 42  1  1  0  0  0
  6  8  1  0  0  0  0
  7 47  1  0  0  0  0
  8  9  1  0  0  0  0
  8 49  1  1  0  0  0
  9 10  1  0  0  0  0
  9 11  1  1  0  0  0
 11 12  1  0  0  0  0
 13 14  1  6  0  0  0
 13 15  1  0  0  0  0
 13 21  1  0  0  0  0
 14 46  1  0  0  0  0
 15 16  1  0  0  0  0
 16 17  1  1  0  0  0
 16 18  1  0  0  0  0
 18  2  1  1  0  0  0
 18 19  1  0  0  0  0
 19 20  1  1  0  0  0
 19 21  1  0  0  0  0
 21 22  1  6  0  0  0
 23 20  1  6  0  0  0
 23 24  1  0  0  0  0
 23 28  1  0  0  0  0
 24 25  1  1  0  0  0
 24 26  1  0  0  0  0
 26 27  1  0  0  0  0
 26 32  1  1  0  0  0
 27 28  1  0  0  0  0
 27 29  1  6  0  0  0
 29 30  1  0  0  0  0
 31 32  1  1  0  0  0
 31 33  1  0  0  0  0
 31 39  1  0  0  0  0
 33 36  1  0  0  0  0
 33 41  1  1  0  0  0
 34 40  1  0  0  0  0
 35 48  1  0  0  0  0
 36 37  1  0  0  0  0
 36 45  1  6  0  0  0
 37 38  1  0  0  0  0
 37 44  1  1  0  0  0
 38 39  1  0  0  0  0
 38 40  1  1  0  0  0
 43 47  1  0  0  0  0
 46 48  1  0  0  0  0
 48 43  1  1  0  0  0
M  END
>  <CHROM.1>
-167.49561682,176.75820550,-60.65978138,-134.74590471,-66.03575286,-84.16990372
-83.20450520,-176.49120900,-148.62304685,-177.74103699,175.23148120,-150.94082008
167.48085274,27.10324993,9.99943154,4.44464263,-1.12237486,0.18146976,-1.63308857

>  <Name>
ligand

>  <RI>
0

>  <Rbt.Current_Directory>
/home/itssahil/PROJECTS/Mol_Feturizer/New_Systems/rnas/4PDQ

>  <Rbt.Executable>
rbdock ($Id: //depot/dev/client3/rdock/2013.1/src/exe/rbdock.cxx#4 $)

>  <Rbt.Library>
libRbt.so (2013.1, Build901 2013/11/27)

>  <Rbt.Parameter_File>
/export/apps/rDock/src/rDock_2013.1_src/data/scripts/dock_solv.prm

>  <Rbt.Receptor>
prm/pocket_docking_4.prm

>  <SCORE>
-11.593

>  <SCORE.INTER>
-2.78305

>  <SCORE.INTER.CONST>
1

>  <SCORE.INTER.POLAR>
0

>  <SCORE.INTER.ROT>
13

>  <SCORE.INTER.SOLV>
21.2206

>  <SCORE.INTER.VDW>
-21.1956

>  <SCORE.INTER.norm>
-0.0567968

>  <SCORE.INTRA>
-8.81881

>  <SCORE.INTRA.DIHEDRAL>
-18.8749

>  <SCORE.INTRA.DIHEDRAL.0>
34.5115

>  <SCORE.INTRA.POLAR>
0

>  <SCORE.INTRA.POLAR.0>
0

>  <SCORE.INTRA.REPUL>
0

>  <SCORE.INTRA.REPUL.0>
0

>  <SCORE.INTRA.SOLV>
1.34937

>  <SCORE.INTRA.SOLV.lig_0>
-122.812

>  <SCORE.INTRA.VDW>
-0.0560179

>  <SCORE.INTRA.VDW.0>
-7.46208

>  <SCORE.INTRA.norm>
-0.179976

>  <SCORE.RESTR>
0.00884529

>  <SCORE.RESTR.CAVITY>
0.00884529

>  <SCORE.RESTR.norm>
0.000180516

>  <SCORE.SYSTEM>
0

>  <SCORE.SYSTEM.CONST>
0

>  <SCORE.SYSTEM.DIHEDRAL>
0

>  <SCORE.SYSTEM.SOLV>
0

>  <SCORE.SYSTEM.norm>
0

>  <SCORE.heavy>
49

>  <SCORE.norm>
-0.236592

>  <RMSD>
7.581

$$$$
ligand
 OpenBabel11021811513D
libRbt.so/2013.1/901 2013/11/27
 49 52  0  0  0  0  0  0  0  0999 V2000
   28.9713    9.5305    8.0955 C   0  0  2  0  0  0  0  0  0  0  0  0
   28.8306    9.4134    6.7104 O   0  0  0  0  0  0  0  0  0  0  0  0
   27.6043    9.1923    8.7985 C   0  0  2  0  0  0  0  0  0  0  0  0
   27.1887    7.7778    8.4258 N   0  0  0  0  0  0  0  0  0  0  0  0
   33.7343   12.0447    2.9772 O   0  0  0  0  0  0  0  0  0  0  0  0
   26.5228   10.2224    8.3972 C   0  0  2  0  0  0  0  0  0  0  0  0
   37.6772   11.2804    0.3191 N   0  0  0  0  0  0  0  0  0  0  0  0
   26.9737   11.6446    8.7655 C   0  0  2  0  0  0  0  0  0  0  0  0
   28.3525   12.0218    8.0753 C   0  0  2  0  0  0  0  0  0  0  0  0
   29.3744   10.9490    8.4564 O   0  0  0  0  0  0  0  0  0  0  0  0
   28.8303   13.4415    8.4967 C   0  0  0  0  0  0  0  0  0  0  0  0
   29.9652   13.9010    7.7793 N   0  0  0  0  0  0  0  0  0  0  0  0
   31.6803   10.0504    3.5048 C   0  0  2  0  0  0  0  0  0  0  0  0
   32.8411    9.8094    2.5984 N   0  0  0  0  0  0  0  0  0  0  0  0
   32.1874    9.7698    5.0016 C   0  0  0  0  0  0  0  0  0  0  0  0
   31.0249   10.0256    6.0318 C   0  0  2  0  0  0  0  0  0  0  0  0
   31.4714    9.7523    7.4058 N   0  0  0  0  0  0  0  0  0  0  0  0
   29.8255    9.1076    5.7223 C   0  0  2  0  0  0  0  0  0  0  0  0
   29.3029    9.3563    4.2499 C   0  0  2  0  0  0  0  0  0  0  0  0
   28.1596    8.4427    4.0566 O   0  0  0  0  0  0  0  0  0  0  0  0
   30.4919    9.0245    3.2118 C   0  0  1  0  0  0  0  0  0  0  0  0
   30.0104    9.2416    1.9232 O   0  0  0  0  0  0  0  0  0  0  0  0
   27.2262    8.5435    3.1726 C   0  0  1  0  0  0  0  0  0  0  0  0
   26.5989    7.2002    2.6967 C   0  0  2  0  0  0  0  0  0  0  0  0
   27.3133    6.7586    1.5855 O   0  0  0  0  0  0  0  0  0  0  0  0
   25.2662    7.7013    2.3218 C   0  0  1  0  0  0  0  0  0  0  0  0
   24.8342    8.7682    3.3747 C   0  0  2  0  0  0  0  0  0  0  0  0
   26.0879    9.3751    3.5709 O   0  0  0  0  0  0  0  0  0  0  0  0
   24.0722    8.2946    4.6132 C   0  0  0  0  0  0  0  0  0  0  0  0
   24.9267    7.3851    5.2805 O   0  0  0  0  0  0  0  0  0  0  0  0
   25.8290    9.5600    0.8211 C   0  0  2  0  0  0  0  0  0  0  0  0
   25.3999    8.2697    0.9414 O   0  0  0  0  0  0  0  0  0  0  0  0
   24.7539   10.4656    0.2967 C   0  0  1  0  0  0  0  0  0  0  0  0
   30.0027   10.1794   -0.7552 N   0  0  0  0  0  0  0  0  0  0  0  0
   34.6889    9.3069    0.7562 O   0  0  0  0  0  0  0  0  0  0  0  0
   25.3319   11.9249    0.1348 C   0  0  2  0  0  0  0  0  0  0  0  0
   26.5931   12.0030   -0.7937 C   0  0  1  0  0  0  0  0  0  0  0  0
   27.6159   11.1320   -0.2639 C   0  0  1  0  0  0  0  0  0  0  0  0
   27.0846    9.7208   -0.0981 O   0  0  0  0  0  0  0  0  0  0  0  0
   28.9019   11.1460   -1.2013 C   0  0  0  0  0  0  0  0  0  0  0  0
   24.3250   10.0223   -0.9706 N   0  0  0  0  0  0  0  0  0  0  0  0
   25.5530    9.9797    8.9511 O   0  0  0  0  0  0  0  0  0  0  0  0
   35.1492   11.5228    0.5614 C   0  0  0  0  0  0  0  0  0  0  0  0
   26.2956   11.6340   -1.8392 O   0  0  0  0  0  0  0  0  0  0  0  0
   25.6612   12.2968    1.1723 O   0  0  0  0  0  0  0  0  0  0  0  0
   33.8133   10.9380    2.4253 C   0  0  0  0  0  0  0  0  0  0  0  0
   36.3303   11.3402   -0.1225 C   0  0  0  0  0  0  0  0  0  0  0  0
   35.0156   10.5207    1.4295 C   0  0  1  0  0  0  0  0  0  0  0  0
   27.1378   11.7495   10.1581 F   0  0  0  0  0  0  0  0  0  0  0  0
  1  2  1  6  0  0  0
  1 10  1  0  0  0  0
  1  3  1  0  0  0  0
  3  4  1  6  0  0  0
  3  6  1  0  0  0  0
  5 46  2  0  0  0  0
  6 42  1  1  0  0  0
  6  8  1  0  0  0  0
  7 47  1  0  0  0  0
  8  9  1  0  0  0  0
  8 49  1  1  0  0  0
  9 10  1  0  0  0  0
  9 11  1  1  0  0  0
 11 12  1  0  0  0  0
 13 14  1  6  0  0  0
 13 15  1  0  0  0  0
 13 21  1  0  0  0  0
 14 46  1  0  0  0  0
 15 16  1  0  0  0  0
 16 17  1  1  0  0  0
 16 18  1  0  0  0  0
 18  2  1  1  0  0  0
 18 19  1  0  0  0  0
 19 20  1  6  0  0  0
 19 21  1  0  0  0  0
 21 22  1  6  0  0  0
 23 20  1  1  0  0  0
 23 24  1  0  0  0  0
 23 28  1  0  0  0  0
 24 25  1  6  0  0  0
 24 26  1  0  0  0  0
 26 27  1  0  0  0  0
 26 32  1  6  0  0  0
 27 28  1  0  0  0  0
 27 29  1  1  0  0  0
 29 30  1  0  0  0  0
 31 32  1  6  0  0  0
 31 33  1  0  0  0  0
 31 39  1  0  0  0  0
 33 36  1  0  0  0  0
 33 41  1  6  0  0  0
 34 40  1  0  0  0  0
 35 48  1  0  0  0  0
 36 37  1  0  0  0  0
 36 45  1  1  0  0  0
 37 38  1  0  0  0  0
 37 44  1  6  0  0  0
 38 39  1  0  0  0  0
 38 40  1  6  0  0  0
 43 47  1  0  0  0  0
 46 48  1  0  0  0  0
 48 43  1  6  0  0  0
M  END
>  <CHROM.1>
-153.01762615,-47.92293931,-172.27344409,-83.39532917,160.07529899,150.27940898
-85.08484218,60.16874780,-112.31756010,-176.41227201,-60.87759694,-72.92052163
-168.44212561,28.80095695,10.07309794,3.64110498,-2.33427032,-0.16172206
-1.60636128

>  <Name>
ligand

>  <RI>
0

>  <Rbt.Current_Directory>
/home/itssahil/PROJECTS/Mol_Feturizer/New_Systems/rnas/4PDQ

>  <Rbt.Executable>
rbdock ($Id: //depot/dev/client3/rdock/2013.1/src/exe/rbdock.cxx#4 $)

>  <Rbt.Library>
libRbt.so (2013.1, Build901 2013/11/27)

>  <Rbt.Parameter_File>
/export/apps/rDock/src/rDock_2013.1_src/data/scripts/dock_solv.prm

>  <Rbt.Receptor>
prm/pocket_docking_4.prm

>  <SCORE>
-3.65248

>  <SCORE.INTER>
-2.84269

>  <SCORE.INTER.CONST>
1

>  <SCORE.INTER.POLAR>
0

>  <SCORE.INTER.ROT>
13

>  <SCORE.INTER.SOLV>
17.7406

>  <SCORE.INTER.VDW>
-20.0753

>  <SCORE.INTER.norm>
-0.0580141

>  <SCORE.INTRA>
-0.809789

>  <SCORE.INTRA.DIHEDRAL>
-12.3136

>  <SCORE.INTRA.DIHEDRAL.0>
34.5115

>  <SCORE.INTRA.POLAR>
0

>  <SCORE.INTRA.POLAR.0>
0

>  <SCORE.INTRA.REPUL>
0

>  <SCORE.INTRA.REPUL.0>
0

>  <SCORE.INTRA.SOLV>
0.88737

>  <SCORE.INTRA.SOLV.lig_0>
-122.812

>  <SCORE.INTRA.VDW>
4.90332

>  <SCORE.INTRA.VDW.0>
-7.46208

>  <SCORE.INTRA.norm>
-0.0165263

>  <SCORE.RESTR>
0

>  <SCORE.RESTR.CAVITY>
0

>  <SCORE.RESTR.norm>
0

>  <SCORE.SYSTEM>
0

>  <SCORE.SYSTEM.CONST>
0

>  <SCORE.SYSTEM.DIHEDRAL>
0

>  <SCORE.SYSTEM.SOLV>
0

>  <SCORE.SYSTEM.norm>
0

>  <SCORE.heavy>
49

>  <SCORE.norm>
-0.0745404

>  <RMSD>
7.604

$$$$
ligand
 OpenBabel11021811513D
libRbt.so/2013.1/901 2013/11/27
 49 52  0  0  0  0  0  0  0  0999 V2000
   26.2959   10.5820    1.0156 C   0  0  2  0  0  0  0  0  0  0  0  0
   25.6674   10.8614    2.2317 O   0  0  0  0  0  0  0  0  0  0  0  0
   25.2711   10.7620   -0.1653 C   0  0  2  0  0  0  0  0  0  0  0  0
   24.7455   12.1889   -0.1561 N   0  0  0  0  0  0  0  0  0  0  0  0
   27.0253   14.7832    7.6571 O   0  0  0  0  0  0  0  0  0  0  0  0
   24.1206    9.7360   -0.0413 C   0  0  2  0  0  0  0  0  0  0  0  0
   27.3477   11.6630   12.2114 N   0  0  0  0  0  0  0  0  0  0  0  0
   24.6775    8.3037   -0.0329 C   0  0  2  0  0  0  0  0  0  0  0  0
   25.7180    8.0842    1.1456 C   0  0  2  0  0  0  0  0  0  0  0  0
   26.8056    9.1520    1.0134 O   0  0  0  0  0  0  0  0  0  0  0  0
   26.3192    6.6492    1.1141 C   0  0  0  0  0  0  0  0  0  0  0  0
   25.3731    5.6253    1.3794 N   0  0  0  0  0  0  0  0  0  0  0  0
   26.2914   12.3361    6.2614 C   0  0  2  0  0  0  0  0  0  0  0  0
   26.7332   12.3641    7.6866 N   0  0  0  0  0  0  0  0  0  0  0  0
   25.5938   10.9118    6.0142 C   0  0  0  0  0  0  0  0  0  0  0  0
   25.0727   10.8059    4.5324 C   0  0  2  0  0  0  0  0  0  0  0  0
   24.4492    9.4970    4.2875 N   0  0  0  0  0  0  0  0  0  0  0  0
   26.2417   10.9766    3.5419 C   0  0  2  0  0  0  0  0  0  0  0  0
   26.9552   12.3714    3.7620 C   0  0  2  0  0  0  0  0  0  0  0  0
   28.0453   12.4401    2.7689 O   0  0  0  0  0  0  0  0  0  0  0  0
   27.5365   12.4280    5.2655 C   0  0  1  0  0  0  0  0  0  0  0  0
   28.1665   13.6582    5.4366 O   0  0  0  0  0  0  0  0  0  0  0  0
   29.1303   11.7434    2.7578 C   0  0  1  0  0  0  0  0  0  0  0  0
   28.9446   10.2069    2.5867 C   0  0  2  0  0  0  0  0  0  0  0  0
   28.8428    9.6394    3.8545 O   0  0  0  0  0  0  0  0  0  0  0  0
   30.2387    9.8987    1.9556 C   0  0  1  0  0  0  0  0  0  0  0  0
   30.5811   11.0507    0.9611 C   0  0  2  0  0  0  0  0  0  0  0  0
   30.0981   12.1269    1.7272 O   0  0  0  0  0  0  0  0  0  0  0  0
   30.0908   10.9292   -0.4825 C   0  0  0  0  0  0  0  0  0  0  0  0
   30.6502    9.7331   -0.9916 O   0  0  0  0  0  0  0  0  0  0  0  0
   31.5518    8.5255    3.5091 C   0  0  2  0  0  0  0  0  0  0  0  0
   31.2350    9.7782    3.0687 O   0  0  0  0  0  0  0  0  0  0  0  0
   32.5460    7.8471    2.6133 C   0  0  1  0  0  0  0  0  0  0  0  0
   28.2782    5.8821    5.3219 N   0  0  0  0  0  0  0  0  0  0  0  0
   28.1220   14.7903   10.2508 O   0  0  0  0  0  0  0  0  0  0  0  0
   32.8264    6.3904    3.1513 C   0  0  2  0  0  0  0  0  0  0  0  0
   31.5367    5.5077    3.2797 C   0  0  1  0  0  0  0  0  0  0  0  0
   30.6005    6.1757    4.1530 C   0  0  1  0  0  0  0  0  0  0  0  0
   30.3140    7.5805    3.6573 O   0  0  0  0  0  0  0  0  0  0  0  0
   29.2553    5.3343    4.2778 C   0  0  0  0  0  0  0  0  0  0  0  0
   32.0245    7.7383    1.3085 N   0  0  0  0  0  0  0  0  0  0  0  0
   23.4132    9.8596   -0.9305 O   0  0  0  0  0  0  0  0  0  0  0  0
   26.4170   13.3103   10.5002 C   0  0  0  0  0  0  0  0  0  0  0  0
   31.0648    5.4039    2.2385 O   0  0  0  0  0  0  0  0  0  0  0  0
   33.2736    6.4786    4.2074 O   0  0  0  0  0  0  0  0  0  0  0  0
   27.0818   13.7038    8.2633 C   0  0  0  0  0  0  0  0  0  0  0  0
   26.7851   12.8834   11.7564 C   0  0  0  0  0  0  0  0  0  0  0  0
   27.5271   13.5713    9.8111 C   0  0  1  0  0  0  0  0  0  0  0  0
   25.3306    8.0366   -1.2492 F   0  0  0  0  0  0  0  0  0  0  0  0
  1  2  1  1  0  0  0
  1 10  1  0  0  0  0
  1  3  1  0  0  0  0
  3  4  1  1  0  0  0
  3  6  1  0  0  0  0
  5 46  2  0  0  0  0
  6 42  1  6  0  0  0
  6  8  1  0  0  0  0
  7 47  1  0  0  0  0
  8  9  1  0  0  0  0
  8 49  1  6  0  0  0
  9 10  1  0  0  0  0
  9 11  1  6  0  0  0
 11 12  1  0  0  0  0
 13 14  1  1  0  0  0
 13 15  1  0  0  0  0
 13 21  1  0  0  0  0
 14 46  1  0  0  0  0
 15 16  1  0  0  0  0
 16 17  1  1  0  0  0
 16 18  1  0  0  0  0
 18  2  1  6  0  0  0
 18 19  1  0  0  0  0
 19 20  1  6  0  0  0
 19 21  1  0  0  0  0
 21 22  1  6  0  0  0
 23 20  1  6  0  0  0
 23 24  1  0  0  0  0
 23 28  1  0  0  0  0
 24 25  1  1  0  0  0
 24 26  1  0  0  0  0
 26 27  1  0  0  0  0
 26 32  1  1  0  0  0
 27 28  1  0  0  0  0
 27 29  1  6  0  0  0
 29 30  1  0  0  0  0
 31 32  1  6  0  0  0
 31 33  1  0  0  0  0
 31 39  1  0  0  0  0
 33 36  1  0  0  0  0
 33 41  1  6  0  0  0
 34 40  1  0  0  0  0
 35 48  1  0  0  0  0
 36 37  1  0  0  0  0
 36 45  1  1  0  0  0
 37 38  1  0  0  0  0
 37 44  1  6  0  0  0
 38 39  1  0  0  0  0
 38 40  1  6  0  0  0
 43 47  1  0  0  0  0
 46 48  1  0  0  0  0
 48 43  1  1  0  0  0
M  END
>  <CHROM.1>
-172.08976750,-160.90330273,-66.00459864,-164.23466609,-69.62457598,63.48793542
98.51459426,-58.62840854,79.98261749,172.72677904,-73.44301951,-74.46570741
-13.32365841,28.01314442,10.00328002,3.59907741,1.38035720,0.55394472,-2.04720532

>  <Name>
ligand

>  <RI>
0

>  <Rbt.Current_Directory>
/home/itssahil/PROJECTS/Mol_Feturizer/New_Systems/rnas/4PDQ

>  <Rbt.Executable>
rbdock ($Id: //depot/dev/client3/rdock/2013.1/src/exe/rbdock.cxx#4 $)

>  <Rbt.Library>
libRbt.so (2013.1, Build901 2013/11/27)

>  <Rbt.Parameter_File>
/export/apps/rDock/src/rDock_2013.1_src/data/scripts/dock_solv.prm

>  <Rbt.Receptor>
prm/pocket_docking_6.prm

>  <SCORE>
-14.4126

>  <SCORE.INTER>
-5.15786

>  <SCORE.INTER.CONST>
1

>  <SCORE.INTER.POLAR>
0

>  <SCORE.INTER.ROT>
13

>  <SCORE.INTER.SOLV>
23.2473

>  <SCORE.INTER.VDW>
-23.4543

>  <SCORE.INTER.norm>
-0.105262

>  <SCORE.INTRA>
-9.25479

>  <SCORE.INTRA.DIHEDRAL>
-22.1554

>  <SCORE.INTRA.DIHEDRAL.0>
34.5115

>  <SCORE.INTRA.POLAR>
0

>  <SCORE.INTRA.POLAR.0>
0

>  <SCORE.INTRA.REPUL>
0

>  <SCORE.INTRA.REPUL.0>
0

>  <SCORE.INTRA.SOLV>
0.397091

>  <SCORE.INTRA.SOLV.lig_0>
-122.812

>  <SCORE.INTRA.VDW>
1.62438

>  <SCORE.INTRA.VDW.0>
-7.46208

>  <SCORE.INTRA.norm>
-0.188873

>  <SCORE.RESTR>
0

>  <SCORE.RESTR.CAVITY>
0

>  <SCORE.RESTR.norm>
0

>  <SCORE.SYSTEM>
0

>  <SCORE.SYSTEM.CONST>
0

>  <SCORE.SYSTEM.DIHEDRAL>
0

>  <SCORE.SYSTEM.SOLV>
0

>  <SCORE.SYSTEM.norm>
0

>  <SCORE.heavy>
49

>  <SCORE.norm>
-0.294136

>  <RMSD>
7.613

$$$$
ligand
 OpenBabel11021811513D
libRbt.so/2013.1/901 2013/11/27
 49 52  0  0  0  0  0  0  0  0999 V2000
   29.9256    7.6258    5.8350 C   0  0  2  0  0  0  0  0  0  0  0  0
   29.6355    8.7520    5.0608 O   0  0  0  0  0  0  0  0  0  0  0  0
   31.1005    6.8145    5.1727 C   0  0  2  0  0  0  0  0  0  0  0  0
   32.3241    7.7105    5.0614 N   0  0  0  0  0  0  0  0  0  0  0  0
   28.7117   15.1464    7.2149 O   0  0  0  0  0  0  0  0  0  0  0  0
   30.6691    6.2740    3.7894 C   0  0  2  0  0  0  0  0  0  0  0  0
   25.1480   18.2158    4.7821 N   0  0  0  0  0  0  0  0  0  0  0  0
   29.4205    5.3885    3.9249 C   0  0  2  0  0  0  0  0  0  0  0  0
   28.2126    6.1733    4.5918 C   0  0  2  0  0  0  0  0  0  0  0  0
   28.7010    6.7334    5.9290 O   0  0  0  0  0  0  0  0  0  0  0  0
   26.9700    5.2548    4.7766 C   0  0  0  0  0  0  0  0  0  0  0  0
   25.8101    5.9417    5.2202 N   0  0  0  0  0  0  0  0  0  0  0  0
   28.2328   12.8295    5.5187 C   0  0  2  0  0  0  0  0  0  0  0  0
   27.2861   13.9786    5.6207 N   0  0  0  0  0  0  0  0  0  0  0  0
   27.7594   11.9407    4.2687 C   0  0  0  0  0  0  0  0  0  0  0  0
   28.7239   10.7121    4.0724 C   0  0  2  0  0  0  0  0  0  0  0  0
   28.2888    9.8786    2.9420 N   0  0  0  0  0  0  0  0  0  0  0  0
   28.7378    9.8361    5.3410 C   0  0  2  0  0  0  0  0  0  0  0  0
   29.1968   10.6845    6.5950 C   0  0  2  0  0  0  0  0  0  0  0  0
   29.1841    9.7609    7.7467 O   0  0  0  0  0  0  0  0  0  0  0  0
   28.1561   11.8972    6.8132 C   0  0  1  0  0  0  0  0  0  0  0  0
   28.5724   12.6261    7.9245 O   0  0  0  0  0  0  0  0  0  0  0  0
   28.1650    9.4267    8.4625 C   0  0  1  0  0  0  0  0  0  0  0  0
   26.9488    8.8510    7.6788 C   0  0  2  0  0  0  0  0  0  0  0  0
   26.1052    9.9095    7.3504 O   0  0  0  0  0  0  0  0  0  0  0  0
   26.3780    8.0121    8.7457 C   0  0  1  0  0  0  0  0  0  0  0  0
   27.5554    7.3510    9.5267 C   0  0  2  0  0  0  0  0  0  0  0  0
   28.4442    8.4410    9.5095 O   0  0  0  0  0  0  0  0  0  0  0  0
   28.0786    5.9995    9.0381 C   0  0  0  0  0  0  0  0  0  0  0  0
   29.1095    5.6266    9.9330 O   0  0  0  0  0  0  0  0  0  0  0  0
   26.2053    9.7759   10.4434 C   0  0  2  0  0  0  0  0  0  0  0  0
   25.5512    8.9215    9.6034 O   0  0  0  0  0  0  0  0  0  0  0  0
   26.6075    9.1088   11.7257 C   0  0  1  0  0  0  0  0  0  0  0  0
   25.8440   14.4953   12.6324 N   0  0  0  0  0  0  0  0  0  0  0  0
   26.0553   16.4679    7.8529 O   0  0  0  0  0  0  0  0  0  0  0  0
   27.3100   10.1634   12.6662 C   0  0  2  0  0  0  0  0  0  0  0  0
   26.4241   11.4198   12.9752 C   0  0  1  0  0  0  0  0  0  0  0  0
   26.0584   12.0495   11.7281 C   0  0  1  0  0  0  0  0  0  0  0  0
   25.3805   11.0552   10.8045 O   0  0  0  0  0  0  0  0  0  0  0  0
   25.1199   13.3076   11.9920 C   0  0  0  0  0  0  0  0  0  0  0  0
   25.4671    8.6190   12.3935 N   0  0  0  0  0  0  0  0  0  0  0  0
   31.5230    5.6557    3.3479 O   0  0  0  0  0  0  0  0  0  0  0  0
   27.1680   17.3640    6.0869 C   0  0  0  0  0  0  0  0  0  0  0  0
   25.4702   11.0674   13.5075 O   0  0  0  0  0  0  0  0  0  0  0  0
   28.2537   10.5470   12.1320 O   0  0  0  0  0  0  0  0  0  0  0  0
   27.6724   15.0970    6.5419 C   0  0  0  0  0  0  0  0  0  0  0  0
   26.1997   18.2766    5.7323 C   0  0  0  0  0  0  0  0  0  0  0  0
   26.5577   16.2670    6.5336 C   0  0  1  0  0  0  0  0  0  0  0  0
   29.7113    4.2697    4.7255 F   0  0  0  0  0  0  0  0  0  0  0  0
  1  2  1  6  0  0  0
  1 10  1  0  0  0  0
  1  3  1  0  0  0  0
  3  4  1  6  0  0  0
  3  6  1  0  0  0  0
  5 46  2  0  0  0  0
  6 42  1  1  0  0  0
  6  8  1  0  0  0  0
  7 47  1  0  0  0  0
  8  9  1  0  0  0  0
  8 49  1  1  0  0  0
  9 10  1  0  0  0  0
  9 11  1  1  0  0  0
 11 12  1  0  0  0  0
 13 14  1  1  0  0  0
 13 15  1  0  0  0  0
 13 21  1  0  0  0  0
 14 46  1  0  0  0  0
 15 16  1  0  0  0  0
 16 17  1  6  0  0  0
 16 18  1  0  0  0  0
 18  2  1  6  0  0  0
 18 19  1  0  0  0  0
 19 20  1  1  0  0  0
 19 21  1  0  0  0  0
 21 22  1  1  0  0  0
 23 20  1  6  0  0  0
 23 24  1  0  0  0  0
 23 28  1  0  0  0  0
 24 25  1  1  0  0  0
 24 26  1  0  0  0  0
 26 27  1  0  0  0  0
 26 32  1  1  0  0  0
 27 28  1  0  0  0  0
 27 29  1  6  0  0  0
 29 30  1  0  0  0  0
 31 32  1  6  0  0  0
 31 33  1  0  0  0  0
 31 39  1  0  0  0  0
 33 36  1  0  0  0  0
 33 41  1  1  0  0  0
 34 40  1  0  0  0  0
 35 48  1  0  0  0  0
 36 37  1  0  0  0  0
 36 45  1  6  0  0  0
 37 38  1  0  0  0  0
 37 44  1  6  0  0  0
 38 39  1  0  0  0  0
 38 40  1  1  0  0  0
 43 47  1  0  0  0  0
 46 48  1  0  0  0  0
 48 43  1  1  0  0  0
M  END
>  <CHROM.1>
-173.38427080,-174.53121892,-172.87872755,-168.29704784,-82.72548638,54.70603804
-74.34337773,-178.79212010,-82.67525581,70.61587846,-59.85700720,-76.12619873
-59.26151540,27.77011681,10.19535752,7.60443744,-0.58188295,1.18614201,-0.55169958

>  <Name>
ligand

>  <RI>
0

>  <Rbt.Current_Directory>
/home/itssahil/PROJECTS/Mol_Feturizer/New_Systems/rnas/4PDQ

>  <Rbt.Executable>
rbdock ($Id: //depot/dev/client3/rdock/2013.1/src/exe/rbdock.cxx#4 $)

>  <Rbt.Library>
libRbt.so (2013.1, Build901 2013/11/27)

>  <Rbt.Parameter_File>
/export/apps/rDock/src/rDock_2013.1_src/data/scripts/dock_solv.prm

>  <Rbt.Receptor>
prm/pocket_docking_8.prm

>  <SCORE>
-10.0143

>  <SCORE.INTER>
-0.591327

>  <SCORE.INTER.CONST>
1

>  <SCORE.INTER.POLAR>
0

>  <SCORE.INTER.ROT>
13

>  <SCORE.INTER.SOLV>
20.9796

>  <SCORE.INTER.VDW>
-19.6541

>  <SCORE.INTER.norm>
-0.0120679

>  <SCORE.INTRA>
-9.423

>  <SCORE.INTRA.DIHEDRAL>
-24.4591

>  <SCORE.INTRA.DIHEDRAL.0>
34.5115

>  <SCORE.INTRA.POLAR>
0

>  <SCORE.INTRA.POLAR.0>
0

>  <SCORE.INTRA.REPUL>
0

>  <SCORE.INTRA.REPUL.0>
0

>  <SCORE.INTRA.SOLV>
-0.371835

>  <SCORE.INTRA.SOLV.lig_0>
-122.812

>  <SCORE.INTRA.VDW>
2.99246

>  <SCORE.INTRA.VDW.0>
-7.46208

>  <SCORE.INTRA.norm>
-0.192306

>  <SCORE.RESTR>
0

>  <SCORE.RESTR.CAVITY>
0

>  <SCORE.RESTR.norm>
0

>  <SCORE.SYSTEM>
0

>  <SCORE.SYSTEM.CONST>
0

>  <SCORE.SYSTEM.DIHEDRAL>
0

>  <SCORE.SYSTEM.SOLV>
0

>  <SCORE.SYSTEM.norm>
0

>  <SCORE.heavy>
49

>  <SCORE.norm>
-0.204374

>  <RMSD>
7.613

$$$$
ligand
 OpenBabel11021811513D
libRbt.so/2013.1/901 2013/11/27
 49 52  0  0  0  0  0  0  0  0999 V2000
   33.5103    9.3167    1.9320 C   0  0  2  0  0  0  0  0  0  0  0  0
   32.6751    9.5123    0.8293 O   0  0  0  0  0  0  0  0  0  0  0  0
   34.9815    9.0463    1.4424 C   0  0  2  0  0  0  0  0  0  0  0  0
   35.4590   10.2328    0.6198 N   0  0  0  0  0  0  0  0  0  0  0  0
   26.9197   10.0055    1.0649 O   0  0  0  0  0  0  0  0  0  0  0  0
   35.0455    7.7329    0.6283 C   0  0  2  0  0  0  0  0  0  0  0  0
   23.9682    8.4957   -1.6802 N   0  0  0  0  0  0  0  0  0  0  0  0
   34.5398    6.5529    1.4730 C   0  0  2  0  0  0  0  0  0  0  0  0
   33.0571    6.7906    1.9874 C   0  0  2  0  0  0  0  0  0  0  0  0
   33.0312    8.1230    2.7385 O   0  0  0  0  0  0  0  0  0  0  0  0
   32.5721    5.6175    2.8876 C   0  0  0  0  0  0  0  0  0  0  0  0
   33.2895    5.4953    4.1060 N   0  0  0  0  0  0  0  0  0  0  0  0
   29.0266   11.6967   -0.0192 C   0  0  2  0  0  0  0  0  0  0  0  0
   27.5736   11.9606   -0.2344 N   0  0  0  0  0  0  0  0  0  0  0  0
   29.3884   10.3654   -0.8397 C   0  0  0  0  0  0  0  0  0  0  0  0
   30.9179   10.0255   -0.6871 C   0  0  2  0  0  0  0  0  0  0  0  0
   31.2579    8.7959   -1.4181 N   0  0  0  0  0  0  0  0  0  0  0  0
   31.2731    9.8176    0.7988 C   0  0  2  0  0  0  0  0  0  0  0  0
   30.9241   11.1125    1.6381 C   0  0  2  0  0  0  0  0  0  0  0  0
   31.3051   10.8165    3.0333 O   0  0  0  0  0  0  0  0  0  0  0  0
   29.3417   11.4007    1.5182 C   0  0  1  0  0  0  0  0  0  0  0  0
   29.0539   12.5378    2.2690 O   0  0  0  0  0  0  0  0  0  0  0  0
   30.5118   10.5579    4.0165 C   0  0  1  0  0  0  0  0  0  0  0  0
   31.0610    9.5667    5.0845 C   0  0  2  0  0  0  0  0  0  0  0  0
   30.6817    8.2785    4.7151 O   0  0  0  0  0  0  0  0  0  0  0  0
   30.2929   10.0475    6.2450 C   0  0  1  0  0  0  0  0  0  0  0  0
   30.2206   11.6040    6.1690 C   0  0  2  0  0  0  0  0  0  0  0  0
   30.0700   11.7297    4.7762 O   0  0  0  0  0  0  0  0  0  0  0  0
   31.3318   12.4129    6.8398 C   0  0  0  0  0  0  0  0  0  0  0  0
   31.3416   12.0209    8.1996 O   0  0  0  0  0  0  0  0  0  0  0  0
   28.0634    9.8792    5.2328 C   0  0  2  0  0  0  0  0  0  0  0  0
   28.9443    9.3994    6.1587 O   0  0  0  0  0  0  0  0  0  0  0  0
   27.3587   11.1144    5.7113 C   0  0  1  0  0  0  0  0  0  0  0  0
   24.1000    7.6832    4.5991 N   0  0  0  0  0  0  0  0  0  0  0  0
   24.9824   12.8400   -0.0165 O   0  0  0  0  0  0  0  0  0  0  0  0
   26.3230   11.5830    4.6169 C   0  0  2  0  0  0  0  0  0  0  0  0
   25.2712   10.4847    4.2344 C   0  0  1  0  0  0  0  0  0  0  0  0
   25.9721    9.3113    3.7683 C   0  0  1  0  0  0  0  0  0  0  0  0
   26.9756    8.8401    4.8037 O   0  0  0  0  0  0  0  0  0  0  0  0
   24.9426    8.1518    3.4094 C   0  0  0  0  0  0  0  0  0  0  0  0
   26.6472   10.8359    6.8956 N   0  0  0  0  0  0  0  0  0  0  0  0
   36.1285    7.5380    0.3195 O   0  0  0  0  0  0  0  0  0  0  0  0
   24.7587   10.8465   -1.0822 C   0  0  0  0  0  0  0  0  0  0  0  0
   24.6748   10.2118    5.1764 O   0  0  0  0  0  0  0  0  0  0  0  0
   26.9051   11.8326    3.6566 O   0  0  0  0  0  0  0  0  0  0  0  0
   26.6089   10.9946    0.3860 C   0  0  0  0  0  0  0  0  0  0  0  0
   24.3483    9.5584   -0.8204 C   0  0  0  0  0  0  0  0  0  0  0  0
   25.0811   11.4205    0.0762 C   0  0  1  0  0  0  0  0  0  0  0  0
   35.3695    6.3765    2.5946 F   0  0  0  0  0  0  0  0  0  0  0  0
  1  2  1  6  0  0  0
  1 10  1  0  0  0  0
  1  3  1  0  0  0  0
  3  4  1  6  0  0  0
  3  6  1  0  0  0  0
  5 46  2  0  0  0  0
  6 42  1  1  0  0  0
  6  8  1  0  0  0  0
  7 47  1  0  0  0  0
  8  9  1  0  0  0  0
  8 49  1  1  0  0  0
  9 10  1  0  0  0  0
  9 11  1  1  0  0  0
 11 12  1  0  0  0  0
 13 14  1  1  0  0  0
 13 15  1  0  0  0  0
 13 21  1  0  0  0  0
 14 46  1  0  0  0  0
 15 16  1  0  0  0  0
 16 17  1  6  0  0  0
 16 18  1  0  0  0  0
 18  2  1  6  0  0  0
 18 19  1  0  0  0  0
 19 20  1  1  0  0  0
 19 21  1  0  0  0  0
 21 22  1  1  0  0  0
 23 20  1  6  0  0  0
 23 24  1  0  0  0  0
 23 28  1  0  0  0  0
 24 25  1  6  0  0  0
 24 26  1  0  0  0  0
 26 27  1  0  0  0  0
 26 32  1  6  0  0  0
 27 28  1  0  0  0  0
 27 29  1  6  0  0  0
 29 30  1  0  0  0  0
 31 32  1  1  0  0  0
 31 33  1  0  0  0  0
 31 39  1  0  0  0  0
 33 36  1  0  0  0  0
 33 41  1  1  0  0  0
 34 40  1  0  0  0  0
 35 48  1  0  0  0  0
 36 37  1  0  0  0  0
 36 45  1  6  0  0  0
 37 38  1  0  0  0  0
 37 44  1  1  0  0  0
 38 39  1  0  0  0  0
 38 40  1  1  0  0  0
 43 47  1  0  0  0  0
 46 48  1  0  0  0  0
 48 43  1  6  0  0  0
M  END
>  <CHROM.1>
-178.35930945,175.77579307,65.38315635,68.66014398,-105.68454732,147.34878711
-75.27293858,-57.39457950,-81.03902562,-61.35439927,-176.11554739,-156.15225423
147.29007677,29.58563350,9.79367276,2.68229674,0.08701140,0.27419655,-1.66680990

>  <Name>
ligand

>  <RI>
0

>  <Rbt.Current_Directory>
/home/itssahil/PROJECTS/Mol_Feturizer/New_Systems/rnas/4PDQ

>  <Rbt.Executable>
rbdock ($Id: //depot/dev/client3/rdock/2013.1/src/exe/rbdock.cxx#4 $)

>  <Rbt.Library>
libRbt.so (2013.1, Build901 2013/11/27)

>  <Rbt.Parameter_File>
/export/apps/rDock/src/rDock_2013.1_src/data/scripts/dock_solv.prm

>  <Rbt.Receptor>
prm/pocket_docking_6.prm

>  <SCORE>
-8.48888

>  <SCORE.INTER>
-3.54124

>  <SCORE.INTER.CONST>
1

>  <SCORE.INTER.POLAR>
0

>  <SCORE.INTER.ROT>
13

>  <SCORE.INTER.SOLV>
25.7737

>  <SCORE.INTER.VDW>
-23.2187

>  <SCORE.INTER.norm>
-0.0722703

>  <SCORE.INTRA>
-4.95776

>  <SCORE.INTRA.DIHEDRAL>
-17.4507

>  <SCORE.INTRA.DIHEDRAL.0>
34.5115

>  <SCORE.INTRA.POLAR>
0

>  <SCORE.INTRA.POLAR.0>
0

>  <SCORE.INTRA.REPUL>
0

>  <SCORE.INTRA.REPUL.0>
0

>  <SCORE.INTRA.SOLV>
2.8668

>  <SCORE.INTRA.SOLV.lig_0>
-122.812

>  <SCORE.INTRA.VDW>
2.33422

>  <SCORE.INTRA.VDW.0>
-7.46208

>  <SCORE.INTRA.norm>
-0.101179

>  <SCORE.RESTR>
0.0101186

>  <SCORE.RESTR.CAVITY>
0.0101186

>  <SCORE.RESTR.norm>
0.000206503

>  <SCORE.SYSTEM>
0

>  <SCORE.SYSTEM.CONST>
0

>  <SCORE.SYSTEM.DIHEDRAL>
0

>  <SCORE.SYSTEM.SOLV>
0

>  <SCORE.SYSTEM.norm>
0

>  <SCORE.heavy>
49

>  <SCORE.norm>
-0.173243

>  <RMSD>
7.623

$$$$
ligand
 OpenBabel11021811513D
libRbt.so/2013.1/901 2013/11/27
 49 52  0  0  0  0  0  0  0  0999 V2000
   28.7619    9.0585    8.7293 C   0  0  2  0  0  0  0  0  0  0  0  0
   29.1046   10.0216    7.7770 O   0  0  0  0  0  0  0  0  0  0  0  0
   27.6720    8.0901    8.1365 C   0  0  2  0  0  0  0  0  0  0  0  0
   28.2236    7.4252    6.8851 N   0  0  0  0  0  0  0  0  0  0  0  0
   31.6277    9.1107    2.6305 O   0  0  0  0  0  0  0  0  0  0  0  0
   26.3685    8.8660    7.8353 C   0  0  2  0  0  0  0  0  0  0  0  0
   34.9845   10.4257   -0.9599 N   0  0  0  0  0  0  0  0  0  0  0  0
   25.8416    9.5448    9.1093 C   0  0  2  0  0  0  0  0  0  0  0  0
   26.9160   10.5296    9.7383 C   0  0  2  0  0  0  0  0  0  0  0  0
   28.2015    9.7329    9.9686 O   0  0  0  0  0  0  0  0  0  0  0  0
   26.3968   11.1707   11.0578 C   0  0  0  0  0  0  0  0  0  0  0  0
   25.2735   12.0196   10.8797 N   0  0  0  0  0  0  0  0  0  0  0  0
   32.4503   10.4899    5.0586 C   0  0  2  0  0  0  0  0  0  0  0  0
   33.3757   10.2142    3.9207 N   0  0  0  0  0  0  0  0  0  0  0  0
   32.1998    9.0933    5.8089 C   0  0  0  0  0  0  0  0  0  0  0  0
   31.2474    9.2979    7.0456 C   0  0  2  0  0  0  0  0  0  0  0  0
   30.9939    8.0214    7.7298 N   0  0  0  0  0  0  0  0  0  0  0  0
   29.8941    9.8771    6.5872 C   0  0  2  0  0  0  0  0  0  0  0  0
   30.1061   11.2546    5.8386 C   0  0  2  0  0  0  0  0  0  0  0  0
   28.7620   11.7258    5.4503 O   0  0  0  0  0  0  0  0  0  0  0  0
   31.0304   11.0056    4.5405 C   0  0  1  0  0  0  0  0  0  0  0  0
   31.1984   12.2266    3.8919 O   0  0  0  0  0  0  0  0  0  0  0  0
   27.9571   11.1697    4.6102 C   0  0  1  0  0  0  0  0  0  0  0  0
   27.3772    9.7907    5.0422 C   0  0  2  0  0  0  0  0  0  0  0  0
   28.2265    8.7952    4.5650 O   0  0  0  0  0  0  0  0  0  0  0  0
   26.1150    9.8370    4.2853 C   0  0  1  0  0  0  0  0  0  0  0  0
   25.5637   11.2949    4.3484 C   0  0  2  0  0  0  0  0  0  0  0  0
   26.7897   11.9772    4.2486 O   0  0  0  0  0  0  0  0  0  0  0  0
   24.6350   11.6672    5.5050 C   0  0  0  0  0  0  0  0  0  0  0  0
   24.5005   13.0755    5.4676 O   0  0  0  0  0  0  0  0  0  0  0  0
   25.4730    9.5307    1.9364 C   0  0  2  0  0  0  0  0  0  0  0  0
   26.4417    9.4003    2.8893 O   0  0  0  0  0  0  0  0  0  0  0  0
   25.4243    8.3471    1.0156 C   0  0  1  0  0  0  0  0  0  0  0  0
   23.8375   12.6256   -1.9468 N   0  0  0  0  0  0  0  0  0  0  0  0
   34.6689    8.0942    1.8547 O   0  0  0  0  0  0  0  0  0  0  0  0
   24.3215    8.5873   -0.0872 C   0  0  2  0  0  0  0  0  0  0  0  0
   24.5376    9.8994   -0.9182 C   0  0  1  0  0  0  0  0  0  0  0  0
   24.5711   11.0237   -0.0126 C   0  0  1  0  0  0  0  0  0  0  0  0
   25.6245   10.8171    1.0592 O   0  0  0  0  0  0  0  0  0  0  0  0
   24.8330   12.3757   -0.8104 C   0  0  0  0  0  0  0  0  0  0  0  0
   26.6650    8.1895    0.3660 N   0  0  0  0  0  0  0  0  0  0  0  0
   25.5812    8.1351    7.4451 O   0  0  0  0  0  0  0  0  0  0  0  0
   33.2576    9.1729    0.4388 C   0  0  0  0  0  0  0  0  0  0  0  0
   25.5492    9.8245   -1.4554 O   0  0  0  0  0  0  0  0  0  0  0  0
   23.3047    8.6932    0.4402 O   0  0  0  0  0  0  0  0  0  0  0  0
   32.8025    9.4895    2.7395 C   0  0  0  0  0  0  0  0  0  0  0  0
   34.1609    9.3320   -0.5882 C   0  0  0  0  0  0  0  0  0  0  0  0
   33.9191    9.2781    1.5906 C   0  0  1  0  0  0  0  0  0  0  0  0
   25.5219    8.5721   10.0732 F   0  0  0  0  0  0  0  0  0  0  0  0
  1  2  1  6  0  0  0
  1 10  1  0  0  0  0
  1  3  1  0  0  0  0
  3  4  1  6  0  0  0
  3  6  1  0  0  0  0
  5 46  2  0  0  0  0
  6 42  1  1  0  0  0
  6  8  1  0  0  0  0
  7 47  1  0  0  0  0
  8  9  1  0  0  0  0
  8 49  1  1  0  0  0
  9 10  1  0  0  0  0
  9 11  1  1  0  0  0
 11 12  1  0  0  0  0
 13 14  1  6  0  0  0
 13 15  1  0  0  0  0
 13 21  1  0  0  0  0
 14 46  1  0  0  0  0
 15 16  1  0  0  0  0
 16 17  1  6  0  0  0
 16 18  1  0  0  0  0
 18  2  1  1  0  0  0
 18 19  1  0  0  0  0
 19 20  1  6  0  0  0
 19 21  1  0  0  0  0
 21 22  1  1  0  0  0
 23 20  1  1  0  0  0
 23 24  1  0  0  0  0
 23 28  1  0  0  0  0
 24 25  1  6  0  0  0
 24 26  1  0  0  0  0
 26 27  1  0  0  0  0
 26 32  1  6  0  0  0
 27 28  1  0  0  0  0
 27 29  1  1  0  0  0
 29 30  1  0  0  0  0
 31 32  1  1  0  0  0
 31 33  1  0  0  0  0
 31 39  1  0  0  0  0
 33 36  1  0  0  0  0
 33 41  1  6  0  0  0
 34 40  1  0  0  0  0
 35 48  1  0  0  0  0
 36 37  1  0  0  0  0
 36 45  1  1  0  0  0
 37 38  1  0  0  0  0
 37 44  1  1  0  0  0
 38 39  1  0  0  0  0
 38 40  1  6  0  0  0
 43 47  1  0  0  0  0
 46 48  1  0  0  0  0
 48 43  1  6  0  0  0
M  END
>  <CHROM.1>
-73.62266745,-55.83114828,-64.83118091,73.34640368,-65.34747547,67.30198439
-171.21459859,168.91884375,-139.04401721,54.70471742,-62.41112686,-75.59146791
-95.34118258,28.17474761,9.96435343,4.34368383,-1.78441702,0.10500472,-1.54039626

>  <Name>
ligand

>  <RI>
0

>  <Rbt.Current_Directory>
/home/itssahil/PROJECTS/Mol_Feturizer/New_Systems/rnas/4PDQ

>  <Rbt.Executable>
rbdock ($Id: //depot/dev/client3/rdock/2013.1/src/exe/rbdock.cxx#4 $)

>  <Rbt.Library>
libRbt.so (2013.1, Build901 2013/11/27)

>  <Rbt.Parameter_File>
/export/apps/rDock/src/rDock_2013.1_src/data/scripts/dock_solv.prm

>  <Rbt.Receptor>
prm/pocket_docking_3.prm

>  <SCORE>
-7.4851

>  <SCORE.INTER>
-3.21811

>  <SCORE.INTER.CONST>
1

>  <SCORE.INTER.POLAR>
0

>  <SCORE.INTER.ROT>
13

>  <SCORE.INTER.SOLV>
18.3385

>  <SCORE.INTER.VDW>
-20.5249

>  <SCORE.INTER.norm>
-0.0656757

>  <SCORE.INTRA>
-5.15032

>  <SCORE.INTRA.DIHEDRAL>
-24.1472

>  <SCORE.INTRA.DIHEDRAL.0>
34.5115

>  <SCORE.INTRA.POLAR>
0

>  <SCORE.INTRA.POLAR.0>
0

>  <SCORE.INTRA.REPUL>
0.141688

>  <SCORE.INTRA.REPUL.0>
0

>  <SCORE.INTRA.SOLV>
4.90958

>  <SCORE.INTRA.SOLV.lig_0>
-122.812

>  <SCORE.INTRA.VDW>
3.76006

>  <SCORE.INTRA.VDW.0>
-7.46208

>  <SCORE.INTRA.norm>
-0.105109

>  <SCORE.RESTR>
0.883331

>  <SCORE.RESTR.CAVITY>
0.883331

>  <SCORE.RESTR.norm>
0.0180272

>  <SCORE.SYSTEM>
0

>  <SCORE.SYSTEM.CONST>
0

>  <SCORE.SYSTEM.DIHEDRAL>
0

>  <SCORE.SYSTEM.SOLV>
0

>  <SCORE.SYSTEM.norm>
0

>  <SCORE.heavy>
49

>  <SCORE.norm>
-0.152757

>  <RMSD>
7.639

$$$$
ligand
 OpenBabel11021811513D
libRbt.so/2013.1/901 2013/11/27
 49 52  0  0  0  0  0  0  0  0999 V2000
   27.9694    4.5613    7.1510 C   0  0  2  0  0  0  0  0  0  0  0  0
   27.9438    5.8540    6.6214 O   0  0  0  0  0  0  0  0  0  0  0  0
   26.5085    4.1130    7.5279 C   0  0  2  0  0  0  0  0  0  0  0  0
   25.6364    4.1585    6.2829 N   0  0  0  0  0  0  0  0  0  0  0  0
   33.8026    5.3465    3.4232 O   0  0  0  0  0  0  0  0  0  0  0  0
   25.9403    5.0152    8.6482 C   0  0  2  0  0  0  0  0  0  0  0  0
   36.0362   10.1540    2.0415 N   0  0  0  0  0  0  0  0  0  0  0  0
   26.8482    4.9683    9.8871 C   0  0  2  0  0  0  0  0  0  0  0  0
   28.3332    5.4129    9.5452 C   0  0  2  0  0  0  0  0  0  0  0  0
   28.8327    4.5309    8.3994 O   0  0  0  0  0  0  0  0  0  0  0  0
   29.2594    5.3096   10.7914 C   0  0  0  0  0  0  0  0  0  0  0  0
   28.7536    5.9750   11.9384 N   0  0  0  0  0  0  0  0  0  0  0  0
   31.9050    6.7677    5.1126 C   0  0  2  0  0  0  0  0  0  0  0  0
   32.9822    7.4508    4.3380 N   0  0  0  0  0  0  0  0  0  0  0  0
   30.6854    6.5169    4.0996 C   0  0  0  0  0  0  0  0  0  0  0  0
   29.5073    5.7734    4.8327 C   0  0  2  0  0  0  0  0  0  0  0  0
   28.3752    5.5558    3.9200 N   0  0  0  0  0  0  0  0  0  0  0  0
   29.0096    6.6102    6.0282 C   0  0  2  0  0  0  0  0  0  0  0  0
   30.1906    6.8796    7.0458 C   0  0  2  0  0  0  0  0  0  0  0  0
   29.6141    7.6745    8.1481 O   0  0  0  0  0  0  0  0  0  0  0  0
   31.3551    7.6988    6.2878 C   0  0  1  0  0  0  0  0  0  0  0  0
   32.3803    7.9326    7.2010 O   0  0  0  0  0  0  0  0  0  0  0  0
   28.8438    8.7033    8.0429 C   0  0  1  0  0  0  0  0  0  0  0  0
   28.4019    9.3561    9.3857 C   0  0  2  0  0  0  0  0  0  0  0  0
   27.2051    8.7639    9.7817 O   0  0  0  0  0  0  0  0  0  0  0  0
   28.1938   10.7314    8.9027 C   0  0  1  0  0  0  0  0  0  0  0  0
   29.3195   11.0608    7.8742 C   0  0  2  0  0  0  0  0  0  0  0  0
   29.3915    9.8041    7.2466 O   0  0  0  0  0  0  0  0  0  0  0  0
   30.6212   11.6698    8.3973 C   0  0  0  0  0  0  0  0  0  0  0  0
   31.2116   10.6886    9.2288 O   0  0  0  0  0  0  0  0  0  0  0  0
   26.2341   11.9822    8.1164 C   0  0  2  0  0  0  0  0  0  0  0  0
   26.8245   10.7644    8.2943 O   0  0  0  0  0  0  0  0  0  0  0  0
   24.8325   11.8590    7.5953 C   0  0  1  0  0  0  0  0  0  0  0  0
   26.9904   16.6546    5.9287 N   0  0  0  0  0  0  0  0  0  0  0  0
   35.8434    6.6095    1.9750 O   0  0  0  0  0  0  0  0  0  0  0  0
   24.2312   13.2998    7.3656 C   0  0  2  0  0  0  0  0  0  0  0  0
   25.0831   14.1901    6.3958 C   0  0  1  0  0  0  0  0  0  0  0  0
   26.4230   14.3018    6.9228 C   0  0  1  0  0  0  0  0  0  0  0  0
   27.0243   12.9284    7.1533 O   0  0  0  0  0  0  0  0  0  0  0  0
   27.3373   15.1631    5.9455 C   0  0  0  0  0  0  0  0  0  0  0  0
   24.8351   11.1841    6.3581 N   0  0  0  0  0  0  0  0  0  0  0  0
   24.8968    4.6449    8.9319 O   0  0  0  0  0  0  0  0  0  0  0  0
   34.3069    8.2819    1.9272 C   0  0  0  0  0  0  0  0  0  0  0  0
   25.1279   13.6701    5.3735 O   0  0  0  0  0  0  0  0  0  0  0  0
   24.2072   13.8436    8.3790 O   0  0  0  0  0  0  0  0  0  0  0  0
   33.8844    6.5796    3.5160 C   0  0  0  0  0  0  0  0  0  0  0  0
   35.1904    9.2042    1.4127 C   0  0  0  0  0  0  0  0  0  0  0  0
   34.9857    7.4629    2.7296 C   0  0  1  0  0  0  0  0  0  0  0  0
   26.8900    3.6600   10.4010 F   0  0  0  0  0  0  0  0  0  0  0  0
  1  2  1  1  0  0  0
  1 10  1  0  0  0  0
  1  3  1  0  0  0  0
  3  4  1  6  0  0  0
  3  6  1  0  0  0  0
  5 46  2  0  0  0  0
  6 42  1  1  0  0  0
  6  8  1  0  0  0  0
  7 47  1  0  0  0  0
  8  9  1  0  0  0  0
  8 49  1  6  0  0  0
  9 10  1  0  0  0  0
  9 11  1  1  0  0  0
 11 12  1  0  0  0  0
 13 14  1  6  0  0  0
 13 15  1  0  0  0  0
 13 21  1  0  0  0  0
 14 46  1  0  0  0  0
 15 16  1  0  0  0  0
 16 17  1  6  0  0  0
 16 18  1  0  0  0  0
 18  2  1  1  0  0  0
 18 19  1  0  0  0  0
 19 20  1  1  0  0  0
 19 21  1  0  0  0  0
 21 22  1  1  0  0  0
 23 20  1  1  0  0  0
 23 24  1  0  0  0  0
 23 28  1  0  0  0  0
 24 25  1  6  0  0  0
 24 26  1  0  0  0  0
 26 27  1  0  0  0  0
 26 32  1  6  0  0  0
 27 28  1  0  0  0  0
 27 29  1  1  0  0  0
 29 30  1  0  0  0  0
 31 32  1  6  0  0  0
 31 33  1  0  0  0  0
 31 39  1  0  0  0  0
 33 36  1  0  0  0  0
 33 41  1  6  0  0  0
 34 40  1  0  0  0  0
 35 48  1  0  0  0  0
 36 37  1  0  0  0  0
 36 45  1  1  0  0  0
 37 38  1  0  0  0  0
 37 44  1  6  0  0  0
 38 39  1  0  0  0  0
 38 40  1  6  0  0  0
 43 47  1  0  0  0  0
 46 48  1  0  0  0  0
 48 43  1  6  0  0  0
M  END
>  <CHROM.1>
-173.31667252,58.76522845,-52.02062950,-82.45109977,-46.11034322,-179.19522123
161.68913613,64.43032909,-175.76388055,70.89227169,-59.01705070,-70.75334276
-1.89508507,28.97301581,8.57835882,6.82880600,0.44396795,-0.61069633,2.86987480

>  <Name>
ligand

>  <RI>
0

>  <Rbt.Current_Directory>
/home/itssahil/PROJECTS/Mol_Feturizer/New_Systems/rnas/4PDQ

>  <Rbt.Executable>
rbdock ($Id: //depot/dev/client3/rdock/2013.1/src/exe/rbdock.cxx#4 $)

>  <Rbt.Library>
libRbt.so (2013.1, Build901 2013/11/27)

>  <Rbt.Parameter_File>
/export/apps/rDock/src/rDock_2013.1_src/data/scripts/dock_solv.prm

>  <Rbt.Receptor>
prm/pocket_docking_7.prm

>  <SCORE>
-16.3844

>  <SCORE.INTER>
-2.91765

>  <SCORE.INTER.CONST>
1

>  <SCORE.INTER.POLAR>
0

>  <SCORE.INTER.ROT>
13

>  <SCORE.INTER.SOLV>
22.859

>  <SCORE.INTER.VDW>
-21.8315

>  <SCORE.INTER.norm>
-0.0595439

>  <SCORE.INTRA>
-13.4667

>  <SCORE.INTRA.DIHEDRAL>
-29.3875

>  <SCORE.INTRA.DIHEDRAL.0>
34.5115

>  <SCORE.INTRA.POLAR>
0

>  <SCORE.INTRA.POLAR.0>
0

>  <SCORE.INTRA.REPUL>
0

>  <SCORE.INTRA.REPUL.0>
0

>  <SCORE.INTRA.SOLV>
-0.632486

>  <SCORE.INTRA.SOLV.lig_0>
-122.812

>  <SCORE.INTRA.VDW>
1.54323

>  <SCORE.INTRA.VDW.0>
-7.46208

>  <SCORE.INTRA.norm>
-0.274831

>  <SCORE.RESTR>
0

>  <SCORE.RESTR.CAVITY>
0

>  <SCORE.RESTR.norm>
0

>  <SCORE.SYSTEM>
0

>  <SCORE.SYSTEM.CONST>
0

>  <SCORE.SYSTEM.DIHEDRAL>
0

>  <SCORE.SYSTEM.SOLV>
0

>  <SCORE.SYSTEM.norm>
0

>  <SCORE.heavy>
49

>  <SCORE.norm>
-0.334375

>  <RMSD>
7.644

$$$$
ligand
 OpenBabel11021811513D
libRbt.so/2013.1/901 2013/11/27
 49 52  0  0  0  0  0  0  0  0999 V2000
   24.6867   13.4427    8.5163 C   0  0  2  0  0  0  0  0  0  0  0  0
   25.4196   13.6899    7.3528 O   0  0  0  0  0  0  0  0  0  0  0  0
   24.9258   14.6042    9.5512 C   0  0  2  0  0  0  0  0  0  0  0  0
   24.4997   15.9237    8.9268 N   0  0  0  0  0  0  0  0  0  0  0  0
   27.0695   12.6399    0.9082 O   0  0  0  0  0  0  0  0  0  0  0  0
   26.4089   14.6396    9.9881 C   0  0  2  0  0  0  0  0  0  0  0  0
   31.1539   10.5603   -0.5324 N   0  0  0  0  0  0  0  0  0  0  0  0
   26.8211   13.2902   10.5971 C   0  0  2  0  0  0  0  0  0  0  0  0
   26.5922   12.0920    9.5814 C   0  0  2  0  0  0  0  0  0  0  0  0
   25.1288   12.1297    9.1370 O   0  0  0  0  0  0  0  0  0  0  0  0
   26.9592   10.7232   10.2241 C   0  0  0  0  0  0  0  0  0  0  0  0
   28.3495   10.5505   10.4508 N   0  0  0  0  0  0  0  0  0  0  0  0
   26.4549   11.7553    3.6127 C   0  0  2  0  0  0  0  0  0  0  0  0
   27.2129   10.9239    2.6323 N   0  0  0  0  0  0  0  0  0  0  0  0
   27.5274   12.6695    4.3811 C   0  0  0  0  0  0  0  0  0  0  0  0
   26.8062   13.6024    5.4241 C   0  0  2  0  0  0  0  0  0  0  0  0
   27.7806   14.4309    6.1493 N   0  0  0  0  0  0  0  0  0  0  0  0
   26.0327   12.7544    6.4535 C   0  0  2  0  0  0  0  0  0  0  0  0
   24.9681   11.8367    5.7273 C   0  0  2  0  0  0  0  0  0  0  0  0
   24.2818   11.0773    6.7912 O   0  0  0  0  0  0  0  0  0  0  0  0
   25.7385   10.8467    4.7135 C   0  0  1  0  0  0  0  0  0  0  0  0
   24.7864   10.0431    4.0910 O   0  0  0  0  0  0  0  0  0  0  0  0
   24.7502   10.0768    7.4564 C   0  0  1  0  0  0  0  0  0  0  0  0
   23.7268    9.3287    8.3607 C   0  0  2  0  0  0  0  0  0  0  0  0
   23.7580    9.9130    9.6247 O   0  0  0  0  0  0  0  0  0  0  0  0
   24.3634    8.0010    8.3599 C   0  0  1  0  0  0  0  0  0  0  0  0
   24.9220    7.7306    6.9287 C   0  0  2  0  0  0  0  0  0  0  0  0
   25.3724    9.0316    6.6403 O   0  0  0  0  0  0  0  0  0  0  0  0
   24.0034    7.0543    5.9100 C   0  0  0  0  0  0  0  0  0  0  0  0
   22.9196    7.9407    5.7039 O   0  0  0  0  0  0  0  0  0  0  0  0
   25.8570    6.8626    9.9400 C   0  0  2  0  0  0  0  0  0  0  0  0
   25.4386    8.0459    9.4031 O   0  0  0  0  0  0  0  0  0  0  0  0
   27.0270    7.0435   10.8617 C   0  0  1  0  0  0  0  0  0  0  0  0
   25.8701    3.1648    7.2870 N   0  0  0  0  0  0  0  0  0  0  0  0
   27.4568    9.4256   -0.0792 O   0  0  0  0  0  0  0  0  0  0  0  0
   27.4887    5.6353   11.4038 C   0  0  2  0  0  0  0  0  0  0  0  0
   27.8562    4.6146   10.2715 C   0  0  1  0  0  0  0  0  0  0  0  0
   26.7131    4.4499    9.4044 C   0  0  1  0  0  0  0  0  0  0  0  0
   26.2487    5.7912    8.8695 O   0  0  0  0  0  0  0  0  0  0  0  0
   27.0559    3.4530    8.2120 C   0  0  0  0  0  0  0  0  0  0  0  0
   28.1075    7.6186   10.1630 N   0  0  0  0  0  0  0  0  0  0  0  0
   26.5482   15.4630   10.7684 O   0  0  0  0  0  0  0  0  0  0  0  0
   28.6963   11.2208   -0.7122 C   0  0  0  0  0  0  0  0  0  0  0  0
   28.7259    5.0493    9.6615 O   0  0  0  0  0  0  0  0  0  0  0  0
   26.6152    5.1748   11.9938 O   0  0  0  0  0  0  0  0  0  0  0  0
   27.4465   11.5180    1.2754 C   0  0  0  0  0  0  0  0  0  0  0  0
   29.8854   10.6862   -1.1552 C   0  0  0  0  0  0  0  0  0  0  0  0
   28.2880   10.5072    0.3363 C   0  0  1  0  0  0  0  0  0  0  0  0
   26.0630   13.0350   11.7536 F   0  0  0  0  0  0  0  0  0  0  0  0
  1  2  1  6  0  0  0
  1 10  1  0  0  0  0
  1  3  1  0  0  0  0
  3  4  1  6  0  0  0
  3  6  1  0  0  0  0
  5 46  2  0  0  0  0
  6 42  1  1  0  0  0
  6  8  1  0  0  0  0
  7 47  1  0  0  0  0
  8  9  1  0  0  0  0
  8 49  1  1  0  0  0
  9 10  1  0  0  0  0
  9 11  1  1  0  0  0
 11 12  1  0  0  0  0
 13 14  1  6  0  0  0
 13 15  1  0  0  0  0
 13 21  1  0  0  0  0
 14 46  1  0  0  0  0
 15 16  1  0  0  0  0
 16 17  1  1  0  0  0
 16 18  1  0  0  0  0
 18  2  1  1  0  0  0
 18 19  1  0  0  0  0
 19 20  1  1  0  0  0
 19 21  1  0  0  0  0
 21 22  1  6  0  0  0
 23 20  1  6  0  0  0
 23 24  1  0  0  0  0
 23 28  1  0  0  0  0
 24 25  1  1  0  0  0
 24 26  1  0  0  0  0
 26 27  1  0  0  0  0
 26 32  1  1  0  0  0
 27 28  1  0  0  0  0
 27 29  1  6  0  0  0
 29 30  1  0  0  0  0
 31 32  1  6  0  0  0
 31 33  1  0  0  0  0
 31 39  1  0  0  0  0
 33 36  1  0  0  0  0
 33 41  1  6  0  0  0
 34 40  1  0  0  0  0
 35 48  1  0  0  0  0
 36 37  1  0  0  0  0
 36 45  1  6  0  0  0
 37 38  1  0  0  0  0
 37 44  1  6  0  0  0
 38 39  1  0  0  0  0
 38 40  1  6  0  0  0
 43 47  1  0  0  0  0
 46 48  1  0  0  0  0
 48 43  1  6  0  0  0
M  END
>  <CHROM.1>
147.38598253,-175.07330922,-69.40569615,-88.04996531,-74.87930986,-170.71613921
157.21783276,63.19382496,174.12934475,176.87690244,-62.73930564,-90.31431224
-107.44998801,26.32134064,10.04114163,7.03980628,0.87482683,1.35271743,-0.41181902

>  <Name>
ligand

>  <RI>
0

>  <Rbt.Current_Directory>
/home/itssahil/PROJECTS/Mol_Feturizer/New_Systems/rnas/4PDQ

>  <Rbt.Executable>
rbdock ($Id: //depot/dev/client3/rdock/2013.1/src/exe/rbdock.cxx#4 $)

>  <Rbt.Library>
libRbt.so (2013.1, Build901 2013/11/27)

>  <Rbt.Parameter_File>
/export/apps/rDock/src/rDock_2013.1_src/data/scripts/dock_solv.prm

>  <Rbt.Receptor>
prm/pocket_docking_6.prm

>  <SCORE>
-9.12641

>  <SCORE.INTER>
-1.25876

>  <SCORE.INTER.CONST>
1

>  <SCORE.INTER.POLAR>
0

>  <SCORE.INTER.ROT>
13

>  <SCORE.INTER.SOLV>
16.336

>  <SCORE.INTER.VDW>
-18.5512

>  <SCORE.INTER.norm>
-0.025689

>  <SCORE.INTRA>
-7.86765

>  <SCORE.INTRA.DIHEDRAL>
-21.7758

>  <SCORE.INTRA.DIHEDRAL.0>
34.5115

>  <SCORE.INTRA.POLAR>
0

>  <SCORE.INTRA.POLAR.0>
0

>  <SCORE.INTRA.REPUL>
0.13389

>  <SCORE.INTRA.REPUL.0>
0

>  <SCORE.INTRA.SOLV>
1.52169

>  <SCORE.INTRA.SOLV.lig_0>
-122.812

>  <SCORE.INTRA.VDW>
1.58998

>  <SCORE.INTRA.VDW.0>
-7.46208

>  <SCORE.INTRA.norm>
-0.160564

>  <SCORE.RESTR>
0

>  <SCORE.RESTR.CAVITY>
0

>  <SCORE.RESTR.norm>
0

>  <SCORE.SYSTEM>
0

>  <SCORE.SYSTEM.CONST>
0

>  <SCORE.SYSTEM.DIHEDRAL>
0

>  <SCORE.SYSTEM.SOLV>
0

>  <SCORE.SYSTEM.norm>
0

>  <SCORE.heavy>
49

>  <SCORE.norm>
-0.186253

>  <RMSD>
7.649

$$$$
ligand
 OpenBabel11021811513D
libRbt.so/2013.1/901 2013/11/27
 49 52  0  0  0  0  0  0  0  0999 V2000
   29.7209   12.8425    5.3052 C   0  0  2  0  0  0  0  0  0  0  0  0
   29.4479   11.4723    5.3200 O   0  0  0  0  0  0  0  0  0  0  0  0
   30.7948   13.1818    6.4047 C   0  0  2  0  0  0  0  0  0  0  0  0
   32.0607   12.3861    6.1273 N   0  0  0  0  0  0  0  0  0  0  0  0
   25.2413   11.7559    0.3722 O   0  0  0  0  0  0  0  0  0  0  0  0
   30.2360   12.8797    7.8148 C   0  0  2  0  0  0  0  0  0  0  0  0
   26.1819    7.0101   -0.5120 N   0  0  0  0  0  0  0  0  0  0  0  0
   28.9475   13.6793    8.0639 C   0  0  2  0  0  0  0  0  0  0  0  0
   27.8395   13.3643    6.9718 C   0  0  2  0  0  0  0  0  0  0  0  0
   28.4531   13.6257    5.5950 O   0  0  0  0  0  0  0  0  0  0  0  0
   26.5585   14.2184    7.1980 C   0  0  0  0  0  0  0  0  0  0  0  0
   25.9559   14.0231    8.4679 N   0  0  0  0  0  0  0  0  0  0  0  0
   25.9526   10.5510    2.9250 C   0  0  2  0  0  0  0  0  0  0  0  0
   25.0917    9.8731    1.9119 N   0  0  0  0  0  0  0  0  0  0  0  0
   27.3688   10.8332    2.2243 C   0  0  0  0  0  0  0  0  0  0  0  0
   28.3365   11.5733    3.2213 C   0  0  2  0  0  0  0  0  0  0  0  0
   29.6449   11.8196    2.5974 N   0  0  0  0  0  0  0  0  0  0  0  0
   28.5575   10.7178    4.4848 C   0  0  2  0  0  0  0  0  0  0  0  0
   27.1780   10.4173    5.1986 C   0  0  2  0  0  0  0  0  0  0  0  0
   27.4966    9.6063    6.3903 O   0  0  0  0  0  0  0  0  0  0  0  0
   26.2304    9.6022    4.1793 C   0  0  1  0  0  0  0  0  0  0  0  0
   25.0260    9.3408    4.8279 O   0  0  0  0  0  0  0  0  0  0  0  0
   26.6756    9.2122    7.3032 C   0  0  1  0  0  0  0  0  0  0  0  0
   27.3138    8.4515    8.5026 C   0  0  2  0  0  0  0  0  0  0  0  0
   27.3066    7.0908    8.2055 O   0  0  0  0  0  0  0  0  0  0  0  0
   26.3159    8.7883    9.5316 C   0  0  1  0  0  0  0  0  0  0  0  0
   25.8780   10.2701    9.3175 C   0  0  2  0  0  0  0  0  0  0  0  0
   25.8730   10.2763    7.9109 O   0  0  0  0  0  0  0  0  0  0  0  0
   26.6689   11.3679   10.0304 C   0  0  0  0  0  0  0  0  0  0  0  0
   26.5868   11.0808   11.4137 O   0  0  0  0  0  0  0  0  0  0  0  0
   25.0771    6.7988   10.2600 C   0  0  2  0  0  0  0  0  0  0  0  0
   25.1859    7.8189    9.3595 O   0  0  0  0  0  0  0  0  0  0  0  0
   24.5219    7.2631   11.5743 C   0  0  1  0  0  0  0  0  0  0  0  0
   28.4087    3.7274   10.3919 N   0  0  0  0  0  0  0  0  0  0  0  0
   23.1166   10.6307   -1.1819 O   0  0  0  0  0  0  0  0  0  0  0  0
   24.4718    6.0480   12.5797 C   0  0  2  0  0  0  0  0  0  0  0  0
   25.8621    5.3582   12.8033 C   0  0  1  0  0  0  0  0  0  0  0  0
   26.3708    4.9118   11.5276 C   0  0  1  0  0  0  0  0  0  0  0  0
   26.4286    6.0630   10.5413 O   0  0  0  0  0  0  0  0  0  0  0  0
   27.8044    4.2428   11.7012 C   0  0  0  0  0  0  0  0  0  0  0  0
   25.3570    8.2543   12.1279 N   0  0  0  0  0  0  0  0  0  0  0  0
   31.0174   13.1720    8.5960 O   0  0  0  0  0  0  0  0  0  0  0  0
   24.7079    9.0126   -1.0824 C   0  0  0  0  0  0  0  0  0  0  0  0
   26.5850    6.1354   13.2403 O   0  0  0  0  0  0  0  0  0  0  0  0
   23.7722    5.2478   12.1398 O   0  0  0  0  0  0  0  0  0  0  0  0
   24.8116   10.6262    0.6457 C   0  0  0  0  0  0  0  0  0  0  0  0
   25.2167    8.0220   -0.2727 C   0  0  0  0  0  0  0  0  0  0  0  0
   23.8811    9.7593   -0.3514 C   0  0  1  0  0  0  0  0  0  0  0  0
   29.2236   15.0575    8.0230 F   0  0  0  0  0  0  0  0  0  0  0  0
  1  2  1  1  0  0  0
  1 10  1  0  0  0  0
  1  3  1  0  0  0  0
  3  4  1  6  0  0  0
  3  6  1  0  0  0  0
  5 46  2  0  0  0  0
  6 42  1  1  0  0  0
  6  8  1  0  0  0  0
  7 47  1  0  0  0  0
  8  9  1  0  0  0  0
  8 49  1  6  0  0  0
  9 10  1  0  0  0  0
  9 11  1  1  0  0  0
 11 12  1  0  0  0  0
 13 14  1  6  0  0  0
 13 15  1  0  0  0  0
 13 21  1  0  0  0  0
 14 46  1  0  0  0  0
 15 16  1  0  0  0  0
 16 17  1  6  0  0  0
 16 18  1  0  0  0  0
 18  2  1  1  0  0  0
 18 19  1  0  0  0  0
 19 20  1  1  0  0  0
 19 21  1  0  0  0  0
 21 22  1  1  0  0  0
 23 20  1  6  0  0  0
 23 24  1  0  0  0  0
 23 28  1  0  0  0  0
 24 25  1  6  0  0  0
 24 26  1  0  0  0  0
 26 27  1  0  0  0  0
 26 32  1  6  0  0  0
 27 28  1  0  0  0  0
 27 29  1  6  0  0  0
 29 30  1  0  0  0  0
 31 32  1  6  0  0  0
 31 33  1  0  0  0  0
 31 39  1  0  0  0  0
 33 36  1  0  0  0  0
 33 41  1  1  0  0  0
 34 40  1  0  0  0  0
 35 48  1  0  0  0  0
 36 37  1  0  0  0  0
 36 45  1  6  0  0  0
 37 38  1  0  0  0  0
 37 44  1  6  0  0  0
 38 39  1  0  0  0  0
 38 40  1  1  0  0  0
 43 47  1  0  0  0  0
 46 48  1  0  0  0  0
 48 43  1  6  0  0  0
M  END
>  <CHROM.1>
-178.90226774,20.80360167,-58.89999925,-60.13885898,175.27948836,-175.79045694
104.47105599,-58.42510228,76.03177926,179.37043005,-176.16231716,-168.26104617
-28.67333440,26.87808893,9.80975387,6.76540086,-1.52661855,0.99215500,1.93126236

>  <Name>
ligand

>  <RI>
0

>  <Rbt.Current_Directory>
/home/itssahil/PROJECTS/Mol_Feturizer/New_Systems/rnas/4PDQ

>  <Rbt.Executable>
rbdock ($Id: //depot/dev/client3/rdock/2013.1/src/exe/rbdock.cxx#4 $)

>  <Rbt.Library>
libRbt.so (2013.1, Build901 2013/11/27)

>  <Rbt.Parameter_File>
/export/apps/rDock/src/rDock_2013.1_src/data/scripts/dock_solv.prm

>  <Rbt.Receptor>
prm/pocket_docking_7.prm

>  <SCORE>
-9.90068

>  <SCORE.INTER>
-4.39482

>  <SCORE.INTER.CONST>
1

>  <SCORE.INTER.POLAR>
0

>  <SCORE.INTER.ROT>
13

>  <SCORE.INTER.SOLV>
24.9496

>  <SCORE.INTER.VDW>
-23.5131

>  <SCORE.INTER.norm>
-0.0896902

>  <SCORE.INTRA>
-5.50586

>  <SCORE.INTRA.DIHEDRAL>
-19.6055

>  <SCORE.INTRA.DIHEDRAL.0>
34.5115

>  <SCORE.INTRA.POLAR>
0

>  <SCORE.INTRA.POLAR.0>
0

>  <SCORE.INTRA.REPUL>
0

>  <SCORE.INTRA.REPUL.0>
0

>  <SCORE.INTRA.SOLV>
1.91515

>  <SCORE.INTRA.SOLV.lig_0>
-122.812

>  <SCORE.INTRA.VDW>
3.33931

>  <SCORE.INTRA.VDW.0>
-7.46208

>  <SCORE.INTRA.norm>
-0.112364

>  <SCORE.RESTR>
0

>  <SCORE.RESTR.CAVITY>
0

>  <SCORE.RESTR.norm>
0

>  <SCORE.SYSTEM>
0

>  <SCORE.SYSTEM.CONST>
0

>  <SCORE.SYSTEM.DIHEDRAL>
0

>  <SCORE.SYSTEM.SOLV>
0

>  <SCORE.SYSTEM.norm>
0

>  <SCORE.heavy>
49

>  <SCORE.norm>
-0.202055

>  <RMSD>
7.677

$$$$
ligand
 OpenBabel11021811513D
libRbt.so/2013.1/901 2013/11/27
 49 52  0  0  0  0  0  0  0  0999 V2000
   32.5485    8.8013    2.0286 C   0  0  2  0  0  0  0  0  0  0  0  0
   32.1205    9.7823    1.1306 O   0  0  0  0  0  0  0  0  0  0  0  0
   33.7645    9.3439    2.8677 C   0  0  2  0  0  0  0  0  0  0  0  0
   33.3347   10.5961    3.6159 N   0  0  0  0  0  0  0  0  0  0  0  0
   26.0593   12.7263   -0.2157 O   0  0  0  0  0  0  0  0  0  0  0  0
   34.9732    9.6250    1.9447 C   0  0  2  0  0  0  0  0  0  0  0  0
   24.5664   11.8651   -5.4058 N   0  0  0  0  0  0  0  0  0  0  0  0
   35.3761    8.3512    1.1853 C   0  0  2  0  0  0  0  0  0  0  0  0
   34.1724    7.7724    0.3275 C   0  0  2  0  0  0  0  0  0  0  0  0
   32.9862    7.5612    1.2701 O   0  0  0  0  0  0  0  0  0  0  0  0
   34.5709    6.4526   -0.3942 C   0  0  0  0  0  0  0  0  0  0  0  0
   34.9096    5.3953    0.4898 N   0  0  0  0  0  0  0  0  0  0  0  0
   28.5373   11.3057   -0.7780 C   0  0  2  0  0  0  0  0  0  0  0  0
   27.4230   11.4287   -1.7631 N   0  0  0  0  0  0  0  0  0  0  0  0
   29.8897   11.1124   -1.6206 C   0  0  0  0  0  0  0  0  0  0  0  0
   31.1269   10.9981   -0.6540 C   0  0  2  0  0  0  0  0  0  0  0  0
   32.3702   10.8004   -1.4137 N   0  0  0  0  0  0  0  0  0  0  0  0
   30.9493    9.8011    0.3013 C   0  0  2  0  0  0  0  0  0  0  0  0
   29.6206    9.9584    1.1456 C   0  0  2  0  0  0  0  0  0  0  0  0
   29.5475    8.7761    2.0265 O   0  0  0  0  0  0  0  0  0  0  0  0
   28.3640   10.0073    0.1356 C   0  0  1  0  0  0  0  0  0  0  0  0
   27.2053   10.1378    0.8973 O   0  0  0  0  0  0  0  0  0  0  0  0
   28.6417    8.5194    2.9076 C   0  0  1  0  0  0  0  0  0  0  0  0
   28.5105    7.0252    3.3257 C   0  0  2  0  0  0  0  0  0  0  0  0
   27.5711    6.4232    2.4920 O   0  0  0  0  0  0  0  0  0  0  0  0
   27.9821    7.2238    4.6856 C   0  0  1  0  0  0  0  0  0  0  0  0
   28.7120    8.4495    5.3165 C   0  0  2  0  0  0  0  0  0  0  0  0
   28.7802    9.2560    4.1661 O   0  0  0  0  0  0  0  0  0  0  0  0
   30.0090    8.2003    6.0878 C   0  0  0  0  0  0  0  0  0  0  0  0
   30.4404    9.4640    6.5563 O   0  0  0  0  0  0  0  0  0  0  0  0
   25.7267    7.2955    5.6508 C   0  0  2  0  0  0  0  0  0  0  0  0
   26.5062    7.4398    4.5395 O   0  0  0  0  0  0  0  0  0  0  0  0
   24.2839    7.5977    5.3711 C   0  0  1  0  0  0  0  0  0  0  0  0
   25.9519   10.4874    8.9047 N   0  0  0  0  0  0  0  0  0  0  0  0
   23.8540   12.6924   -1.9695 O   0  0  0  0  0  0  0  0  0  0  0  0
   23.4527    7.4616    6.7055 C   0  0  2  0  0  0  0  0  0  0  0  0
   23.9726    8.3774    7.8672 C   0  0  1  0  0  0  0  0  0  0  0  0
   25.3582    8.0617    8.1243 C   0  0  1  0  0  0  0  0  0  0  0  0
   26.1801    8.1849    6.8553 O   0  0  0  0  0  0  0  0  0  0  0  0
   25.9415    9.0002    9.2697 C   0  0  0  0  0  0  0  0  0  0  0  0
   24.1494    8.9212    4.9055 N   0  0  0  0  0  0  0  0  0  0  0  0
   35.8543    9.9783    2.5813 O   0  0  0  0  0  0  0  0  0  0  0  0
   25.5631   13.1010   -3.4089 C   0  0  0  0  0  0  0  0  0  0  0  0
   23.8976    9.4710    7.5265 O   0  0  0  0  0  0  0  0  0  0  0  0
   23.5428    6.3757    7.0743 O   0  0  0  0  0  0  0  0  0  0  0  0
   26.2079   12.1891   -1.3225 C   0  0  0  0  0  0  0  0  0  0  0  0
   24.7972   12.9695   -4.5456 C   0  0  0  0  0  0  0  0  0  0  0  0
   25.1006   12.2454   -2.4981 C   0  0  1  0  0  0  0  0  0  0  0  0
   35.7820    7.3592    2.0955 F   0  0  0  0  0  0  0  0  0  0  0  0
  1  2  1  6  0  0  0
  1 10  1  0  0  0  0
  1  3  1  0  0  0  0
  3  4  1  6  0  0  0
  3  6  1  0  0  0  0
  5 46  2  0  0  0  0
  6 42  1  1  0  0  0
  6  8  1  0  0  0  0
  7 47  1  0  0  0  0
  8  9  1  0  0  0  0
  8 49  1  1  0  0  0
  9 10  1  0  0  0  0
  9 11  1  1  0  0  0
 11 12  1  0  0  0  0
 13 14  1  6  0  0  0
 13 15  1  0  0  0  0
 13 21  1  0  0  0  0
 14 46  1  0  0  0  0
 15 16  1  0  0  0  0
 16 17  1  6  0  0  0
 16 18  1  0  0  0  0
 18  2  1  1  0  0  0
 18 19  1  0  0  0  0
 19 20  1  1  0  0  0
 19 21  1  0  0  0  0
 21 22  1  1  0  0  0
 23 20  1  6  0  0  0
 23 24  1  0  0  0  0
 23 28  1  0  0  0  0
 24 25  1  6  0  0  0
 24 26  1  0  0  0  0
 26 27  1  0  0  0  0
 26 32  1  6  0  0  0
 27 28  1  0  0  0  0
 27 29  1  6  0  0  0
 29 30  1  0  0  0  0
 31 32  1  6  0  0  0
 31 33  1  0  0  0  0
 31 39  1  0  0  0  0
 33 36  1  0  0  0  0
 33 41  1  1  0  0  0
 34 40  1  0  0  0  0
 35 48  1  0  0  0  0
 36 37  1  0  0  0  0
 36 45  1  1  0  0  0
 37 38  1  0  0  0  0
 37 44  1  6  0  0  0
 38 39  1  0  0  0  0
 38 40  1  1  0  0  0
 43 47  1  0  0  0  0
 46 48  1  0  0  0  0
 48 43  1  6  0  0  0
M  END
>  <CHROM.1>
-170.85094352,-170.08805126,62.45550353,-153.88676708,178.01674616,159.03401419
162.89592945,-179.36331545,177.54966664,-62.93258544,-60.63396532,-72.95538302
-14.21079406,28.82497825,9.29692783,2.40493858,-0.67500062,-0.20290147,1.95906096

>  <Name>
ligand

>  <RI>
0

>  <Rbt.Current_Directory>
/home/itssahil/PROJECTS/Mol_Feturizer/New_Systems/rnas/4PDQ

>  <Rbt.Executable>
rbdock ($Id: //depot/dev/client3/rdock/2013.1/src/exe/rbdock.cxx#4 $)

>  <Rbt.Library>
libRbt.so (2013.1, Build901 2013/11/27)

>  <Rbt.Parameter_File>
/export/apps/rDock/src/rDock_2013.1_src/data/scripts/dock_solv.prm

>  <Rbt.Receptor>
prm/pocket_docking_4.prm

>  <SCORE>
-13.5962

>  <SCORE.INTER>
-1.17942

>  <SCORE.INTER.CONST>
1

>  <SCORE.INTER.POLAR>
0

>  <SCORE.INTER.ROT>
13

>  <SCORE.INTER.SOLV>
19.1894

>  <SCORE.INTER.VDW>
-19.4494

>  <SCORE.INTER.norm>
-0.0240698

>  <SCORE.INTRA>
-12.4215

>  <SCORE.INTRA.DIHEDRAL>
-28.0768

>  <SCORE.INTRA.DIHEDRAL.0>
34.5115

>  <SCORE.INTRA.POLAR>
0

>  <SCORE.INTRA.POLAR.0>
0

>  <SCORE.INTRA.REPUL>
0

>  <SCORE.INTRA.REPUL.0>
0

>  <SCORE.INTRA.SOLV>
-0.705666

>  <SCORE.INTRA.SOLV.lig_0>
-122.812

>  <SCORE.INTRA.VDW>
1.96974

>  <SCORE.INTRA.VDW.0>
-7.46208

>  <SCORE.INTRA.norm>
-0.2535

>  <SCORE.RESTR>
0.00465585

>  <SCORE.RESTR.CAVITY>
0.00465585

>  <SCORE.RESTR.norm>
9.50173e-05

>  <SCORE.SYSTEM>
0

>  <SCORE.SYSTEM.CONST>
0

>  <SCORE.SYSTEM.DIHEDRAL>
0

>  <SCORE.SYSTEM.SOLV>
0

>  <SCORE.SYSTEM.norm>
0

>  <SCORE.heavy>
49

>  <SCORE.norm>
-0.277474

>  <RMSD>
7.687

$$$$
ligand
 OpenBabel11021811513D
libRbt.so/2013.1/901 2013/11/27
 49 52  0  0  0  0  0  0  0  0999 V2000
   28.0381    5.9593    8.1610 C   0  0  2  0  0  0  0  0  0  0  0  0
   29.2625    6.4379    7.6880 O   0  0  0  0  0  0  0  0  0  0  0  0
   27.1115    7.1691    8.5549 C   0  0  2  0  0  0  0  0  0  0  0  0
   26.8998    8.0524    7.3353 N   0  0  0  0  0  0  0  0  0  0  0  0
   33.6090    6.2731    2.3306 O   0  0  0  0  0  0  0  0  0  0  0  0
   27.7329    7.9643    9.7267 C   0  0  2  0  0  0  0  0  0  0  0  0
   35.1289   10.1270    0.8918 N   0  0  0  0  0  0  0  0  0  0  0  0
   27.9555    7.0470   10.9393 C   0  0  2  0  0  0  0  0  0  0  0  0
   28.8856    5.8119   10.5796 C   0  0  2  0  0  0  0  0  0  0  0  0
   28.2607    5.0891    9.3849 O   0  0  0  0  0  0  0  0  0  0  0  0
   29.0611    4.8582   11.7966 C   0  0  0  0  0  0  0  0  0  0  0  0
   29.5959    5.4912   12.9487 N   0  0  0  0  0  0  0  0  0  0  0  0
   31.1838    6.8728    3.8251 C   0  0  2  0  0  0  0  0  0  0  0  0
   31.4082    7.3157    2.4178 N   0  0  0  0  0  0  0  0  0  0  0  0
   29.6584    6.3835    3.9257 C   0  0  0  0  0  0  0  0  0  0  0  0
   29.3407    5.8729    5.3805 C   0  0  2  0  0  0  0  0  0  0  0  0
   27.9397    5.4405    5.4909 N   0  0  0  0  0  0  0  0  0  0  0  0
   29.5806    6.9989    6.4059 C   0  0  2  0  0  0  0  0  0  0  0  0
   31.0767    7.5078    6.3299 C   0  0  2  0  0  0  0  0  0  0  0  0
   31.2047    8.5703    7.3469 O   0  0  0  0  0  0  0  0  0  0  0  0
   31.3563    8.0853    4.8501 C   0  0  1  0  0  0  0  0  0  0  0  0
   32.6738    8.5347    4.8060 O   0  0  0  0  0  0  0  0  0  0  0  0
   30.6285    9.7239    7.3410 C   0  0  1  0  0  0  0  0  0  0  0  0
   31.3825   10.8591    8.0943 C   0  0  2  0  0  0  0  0  0  0  0  0
   30.9335   10.8763    9.4126 O   0  0  0  0  0  0  0  0  0  0  0  0
   30.8686   12.0080    7.3302 C   0  0  1  0  0  0  0  0  0  0  0  0
   30.7851   11.5946    5.8283 C   0  0  2  0  0  0  0  0  0  0  0  0
   30.3534   10.2682    6.0093 O   0  0  0  0  0  0  0  0  0  0  0  0
   32.0113   11.8288    4.9448 C   0  0  0  0  0  0  0  0  0  0  0  0
   32.0997   13.2280    4.7524 O   0  0  0  0  0  0  0  0  0  0  0  0
   28.7051   13.1590    7.1976 C   0  0  2  0  0  0  0  0  0  0  0  0
   29.5297   12.3414    7.9152 O   0  0  0  0  0  0  0  0  0  0  0  0
   27.6186   13.7505    8.0467 C   0  0  1  0  0  0  0  0  0  0  0  0
   25.6953   11.2577    4.3447 N   0  0  0  0  0  0  0  0  0  0  0  0
   31.5710    7.2140   -0.4133 O   0  0  0  0  0  0  0  0  0  0  0  0
   26.6765   14.6400    7.1460 C   0  0  2  0  0  0  0  0  0  0  0  0
   26.0452   13.8649    5.9379 C   0  0  1  0  0  0  0  0  0  0  0  0
   27.1090   13.3140    5.1313 C   0  0  1  0  0  0  0  0  0  0  0  0
   28.0305   12.4537    5.9751 O   0  0  0  0  0  0  0  0  0  0  0  0
   26.5122   12.4794    3.9146 C   0  0  0  0  0  0  0  0  0  0  0  0
   26.8378   12.7242    8.6155 N   0  0  0  0  0  0  0  0  0  0  0  0
   27.0236    8.8110   10.0204 O   0  0  0  0  0  0  0  0  0  0  0  0
   33.0339    8.7793    0.3416 C   0  0  0  0  0  0  0  0  0  0  0  0
   25.4097   13.0040    6.3533 O   0  0  0  0  0  0  0  0  0  0  0  0
   27.3078   15.4916    6.6993 O   0  0  0  0  0  0  0  0  0  0  0  0
   32.7121    6.9313    1.7846 C   0  0  0  0  0  0  0  0  0  0  0  0
   34.3658    8.9574    0.6420 C   0  0  0  0  0  0  0  0  0  0  0  0
   32.7997    7.4699    0.2635 C   0  0  1  0  0  0  0  0  0  0  0  0
   26.7224    6.5484   11.3955 F   0  0  0  0  0  0  0  0  0  0  0  0
  1  2  1  1  0  0  0
  1 10  1  0  0  0  0
  1  3  1  0  0  0  0
  3  4  1  6  0  0  0
  3  6  1  0  0  0  0
  5 46  2  0  0  0  0
  6 42  1  1  0  0  0
  6  8  1  0  0  0  0
  7 47  1  0  0  0  0
  8  9  1  0  0  0  0
  8 49  1  6  0  0  0
  9 10  1  0  0  0  0
  9 11  1  1  0  0  0
 11 12  1  0  0  0  0
 13 14  1  6  0  0  0
 13 15  1  0  0  0  0
 13 21  1  0  0  0  0
 14 46  1  0  0  0  0
 15 16  1  0  0  0  0
 16 17  1  6  0  0  0
 16 18  1  0  0  0  0
 18  2  1  1  0  0  0
 18 19  1  0  0  0  0
 19 20  1  1  0  0  0
 19 21  1  0  0  0  0
 21 22  1  1  0  0  0
 23 20  1  6  0  0  0
 23 24  1  0  0  0  0
 23 28  1  0  0  0  0
 24 25  1  1  0  0  0
 24 26  1  0  0  0  0
 26 27  1  0  0  0  0
 26 32  1  1  0  0  0
 27 28  1  0  0  0  0
 27 29  1  1  0  0  0
 29 30  1  0  0  0  0
 31 32  1  1  0  0  0
 31 33  1  0  0  0  0
 31 39  1  0  0  0  0
 33 36  1  0  0  0  0
 33 41  1  6  0  0  0
 34 40  1  0  0  0  0
 35 48  1  0  0  0  0
 36 37  1  0  0  0  0
 36 45  1  6  0  0  0
 37 38  1  0  0  0  0
 37 44  1  1  0  0  0
 38 39  1  0  0  0  0
 38 40  1  6  0  0  0
 43 47  1  0  0  0  0
 46 48  1  0  0  0  0
 48 43  1  1  0  0  0
M  END
>  <CHROM.1>
-77.42429351,-63.38457187,-57.45573880,-138.87307417,-66.68832033,-152.60954283
-164.95588581,-71.61511978,-162.16428692,-63.13929667,-177.00599496,-163.06055748
134.50646142,29.57558906,9.30060254,6.28218929,-2.77231751,0.94836547,-0.51369039

>  <Name>
ligand

>  <RI>
0

>  <Rbt.Current_Directory>
/home/itssahil/PROJECTS/Mol_Feturizer/New_Systems/rnas/4PDQ

>  <Rbt.Executable>
rbdock ($Id: //depot/dev/client3/rdock/2013.1/src/exe/rbdock.cxx#4 $)

>  <Rbt.Library>
libRbt.so (2013.1, Build901 2013/11/27)

>  <Rbt.Parameter_File>
/export/apps/rDock/src/rDock_2013.1_src/data/scripts/dock_solv.prm

>  <Rbt.Receptor>
prm/pocket_docking_5.prm

>  <SCORE>
-8.74765

>  <SCORE.INTER>
-1.53872

>  <SCORE.INTER.CONST>
1

>  <SCORE.INTER.POLAR>
0

>  <SCORE.INTER.ROT>
13

>  <SCORE.INTER.SOLV>
14.4435

>  <SCORE.INTER.VDW>
-18.107

>  <SCORE.INTER.norm>
-0.0314025

>  <SCORE.INTRA>
-7.2283

>  <SCORE.INTRA.DIHEDRAL>
-23.67

>  <SCORE.INTRA.DIHEDRAL.0>
34.5115

>  <SCORE.INTRA.POLAR>
0

>  <SCORE.INTRA.POLAR.0>
0

>  <SCORE.INTRA.REPUL>
0.0823355

>  <SCORE.INTRA.REPUL.0>
0

>  <SCORE.INTRA.SOLV>
1.9595

>  <SCORE.INTRA.SOLV.lig_0>
-122.812

>  <SCORE.INTRA.VDW>
3.21529

>  <SCORE.INTRA.VDW.0>
-7.46208

>  <SCORE.INTRA.norm>
-0.147516

>  <SCORE.RESTR>
0.0193717

>  <SCORE.RESTR.CAVITY>
0.0193717

>  <SCORE.RESTR.norm>
0.00039534

>  <SCORE.SYSTEM>
0

>  <SCORE.SYSTEM.CONST>
0

>  <SCORE.SYSTEM.DIHEDRAL>
0

>  <SCORE.SYSTEM.SOLV>
0

>  <SCORE.SYSTEM.norm>
0

>  <SCORE.heavy>
49

>  <SCORE.norm>
-0.178523

>  <RMSD>
7.688

$$$$
ligand
 OpenBabel11021811513D
libRbt.so/2013.1/901 2013/11/27
 49 52  0  0  0  0  0  0  0  0999 V2000
   29.9098   10.6894    4.1753 C   0  0  2  0  0  0  0  0  0  0  0  0
   28.5945   10.2212    4.1234 O   0  0  0  0  0  0  0  0  0  0  0  0
   30.9081    9.4939    3.9482 C   0  0  2  0  0  0  0  0  0  0  0  0
   30.6249    8.8580    2.5962 N   0  0  0  0  0  0  0  0  0  0  0  0
   26.1572    8.9730   -0.9328 O   0  0  0  0  0  0  0  0  0  0  0  0
   30.7834    8.4628    5.0940 C   0  0  2  0  0  0  0  0  0  0  0  0
   22.0766   11.6181   -4.1135 N   0  0  0  0  0  0  0  0  0  0  0  0
   31.0541    9.1326    6.4504 C   0  0  2  0  0  0  0  0  0  0  0  0
   30.0660   10.3464    6.7145 C   0  0  2  0  0  0  0  0  0  0  0  0
   30.1845   11.3108    5.5329 O   0  0  0  0  0  0  0  0  0  0  0  0
   30.3821   11.0543    8.0639 C   0  0  0  0  0  0  0  0  0  0  0  0
   29.9553   10.3282    9.2061 N   0  0  0  0  0  0  0  0  0  0  0  0
   25.1171   10.1140    1.5352 C   0  0  2  0  0  0  0  0  0  0  0  0
   24.3049    9.9782    0.2906 N   0  0  0  0  0  0  0  0  0  0  0  0
   26.3693   11.0527    1.1786 C   0  0  0  0  0  0  0  0  0  0  0  0
   27.2718   11.2701    2.4500 C   0  0  2  0  0  0  0  0  0  0  0  0
   28.4339   12.1124    2.1310 N   0  0  0  0  0  0  0  0  0  0  0  0
   27.7871    9.9159    2.9768 C   0  0  2  0  0  0  0  0  0  0  0  0
   26.5756    8.9633    3.3345 C   0  0  2  0  0  0  0  0  0  0  0  0
   27.1699    7.7070    3.8324 O   0  0  0  0  0  0  0  0  0  0  0  0
   25.7051    8.7043    2.0016 C   0  0  1  0  0  0  0  0  0  0  0  0
   24.6499    7.8587    2.3350 O   0  0  0  0  0  0  0  0  0  0  0  0
   26.8860    7.0964    4.9321 C   0  0  1  0  0  0  0  0  0  0  0  0
   27.1601    7.8970    6.2392 C   0  0  2  0  0  0  0  0  0  0  0  0
   28.4561    7.6083    6.6599 O   0  0  0  0  0  0  0  0  0  0  0  0
   26.1534    7.2577    7.1029 C   0  0  1  0  0  0  0  0  0  0  0  0
   24.8701    7.0091    6.2516 C   0  0  2  0  0  0  0  0  0  0  0  0
   25.4967    6.6462    5.0457 O   0  0  0  0  0  0  0  0  0  0  0  0
   23.8124    8.1125    6.1991 C   0  0  0  0  0  0  0  0  0  0  0  0
   24.4226    9.2161    5.5570 O   0  0  0  0  0  0  0  0  0  0  0  0
   27.6810    6.0781    8.6189 C   0  0  2  0  0  0  0  0  0  0  0  0
   26.7710    5.9879    7.6054 O   0  0  0  0  0  0  0  0  0  0  0  0
   28.1643    4.7295    9.0649 C   0  0  1  0  0  0  0  0  0  0  0  0
   26.1536    7.1660   12.7564 N   0  0  0  0  0  0  0  0  0  0  0  0
   23.0314    8.2353   -1.9510 O   0  0  0  0  0  0  0  0  0  0  0  0
   29.1703    4.9058   10.2678 C   0  0  2  0  0  0  0  0  0  0  0  0
   28.5639    5.6836   11.4868 C   0  0  1  0  0  0  0  0  0  0  0  0
   28.1154    6.9800   11.0353 C   0  0  1  0  0  0  0  0  0  0  0  0
   27.1460    6.8381    9.8772 O   0  0  0  0  0  0  0  0  0  0  0  0
   27.4509    7.7895   12.2337 C   0  0  0  0  0  0  0  0  0  0  0  0
   27.0781    3.9517    9.5140 N   0  0  0  0  0  0  0  0  0  0  0  0
   31.5452    7.6271    4.9282 O   0  0  0  0  0  0  0  0  0  0  0  0
   23.3648   10.4639   -2.2382 C   0  0  0  0  0  0  0  0  0  0  0  0
   27.6606    5.0936   11.8788 O   0  0  0  0  0  0  0  0  0  0  0  0
   30.0685    5.5210    9.8963 O   0  0  0  0  0  0  0  0  0  0  0  0
   24.9848    9.3734   -0.9013 C   0  0  0  0  0  0  0  0  0  0  0  0
   22.7775   10.5597   -3.4799 C   0  0  0  0  0  0  0  0  0  0  0  0
   23.9762    9.2826   -2.1607 C   0  0  1  0  0  0  0  0  0  0  0  0
   32.3712    9.6238    6.4876 F   0  0  0  0  0  0  0  0  0  0  0  0
  1  2  1  1  0  0  0
  1 10  1  0  0  0  0
  1  3  1  0  0  0  0
  3  4  1  6  0  0  0
  3  6  1  0  0  0  0
  5 46  2  0  0  0  0
  6 42  1  6  0  0  0
  6  8  1  0  0  0  0
  7 47  1  0  0  0  0
  8  9  1  0  0  0  0
  8 49  1  6  0  0  0
  9 10  1  0  0  0  0
  9 11  1  1  0  0  0
 11 12  1  0  0  0  0
 13 14  1  6  0  0  0
 13 15  1  0  0  0  0
 13 21  1  0  0  0  0
 14 46  1  0  0  0  0
 15 16  1  0  0  0  0
 16 17  1  6  0  0  0
 16 18  1  0  0  0  0
 18  2  1  1  0  0  0
 18 19  1  0  0  0  0
 19 20  1  6  0  0  0
 19 21  1  0  0  0  0
 21 22  1  1  0  0  0
 23 20  1  6  0  0  0
 23 24  1  0  0  0  0
 23 28  1  0  0  0  0
 24 25  1  1  0  0  0
 24 26  1  0  0  0  0
 26 27  1  0  0  0  0
 26 32  1  6  0  0  0
 27 28  1  0  0  0  0
 27 29  1  6  0  0  0
 29 30  1  0  0  0  0
 31 32  1  6  0  0  0
 31 33  1  0  0  0  0
 31 39  1  0  0  0  0
 33 36  1  0  0  0  0
 33 41  1  1  0  0  0
 34 40  1  0  0  0  0
 35 48  1  0  0  0  0
 36 37  1  0  0  0  0
 36 45  1  6  0  0  0
 37 38  1  0  0  0  0
 37 44  1  6  0  0  0
 38 39  1  0  0  0  0
 38 40  1  1  0  0  0
 43 47  1  0  0  0  0
 46 48  1  0  0  0  0
 48 43  1  1  0  0  0
M  END
>  <CHROM.1>
-79.53095794,-79.20202728,-75.17291395,59.95548275,128.55346343,-61.38410466
77.65466767,64.52968339,177.17832915,-65.83327652,-175.80797579,-76.38896254
105.18538520,27.32040398,8.45310025,5.04022403,-1.94419650,0.42098235,2.02096088

>  <Name>
ligand

>  <RI>
0

>  <Rbt.Current_Directory>
/home/itssahil/PROJECTS/Mol_Feturizer/New_Systems/rnas/4PDQ

>  <Rbt.Executable>
rbdock ($Id: //depot/dev/client3/rdock/2013.1/src/exe/rbdock.cxx#4 $)

>  <Rbt.Library>
libRbt.so (2013.1, Build901 2013/11/27)

>  <Rbt.Parameter_File>
/export/apps/rDock/src/rDock_2013.1_src/data/scripts/dock_solv.prm

>  <Rbt.Receptor>
prm/pocket_docking_5.prm

>  <SCORE>
-11.4026

>  <SCORE.INTER>
-5.03237

>  <SCORE.INTER.CONST>
1

>  <SCORE.INTER.POLAR>
0

>  <SCORE.INTER.ROT>
13

>  <SCORE.INTER.SOLV>
19.7607

>  <SCORE.INTER.VDW>
-22.2085

>  <SCORE.INTER.norm>
-0.102701

>  <SCORE.INTRA>
-6.37018

>  <SCORE.INTRA.DIHEDRAL>
-19.7436

>  <SCORE.INTRA.DIHEDRAL.0>
34.5115

>  <SCORE.INTRA.POLAR>
0

>  <SCORE.INTRA.POLAR.0>
0

>  <SCORE.INTRA.REPUL>
0

>  <SCORE.INTRA.REPUL.0>
0

>  <SCORE.INTRA.SOLV>
2.73396

>  <SCORE.INTRA.SOLV.lig_0>
-122.812

>  <SCORE.INTRA.VDW>
2.13465

>  <SCORE.INTRA.VDW.0>
-7.46208

>  <SCORE.INTRA.norm>
-0.130004

>  <SCORE.RESTR>
0

>  <SCORE.RESTR.CAVITY>
0

>  <SCORE.RESTR.norm>
0

>  <SCORE.SYSTEM>
0

>  <SCORE.SYSTEM.CONST>
0

>  <SCORE.SYSTEM.DIHEDRAL>
0

>  <SCORE.SYSTEM.SOLV>
0

>  <SCORE.SYSTEM.norm>
0

>  <SCORE.heavy>
49

>  <SCORE.norm>
-0.232705

>  <RMSD>
7.697

$$$$
ligand
 OpenBabel11021811513D
libRbt.so/2013.1/901 2013/11/27
 49 52  0  0  0  0  0  0  0  0999 V2000
   27.1707   14.2095    7.9079 C   0  0  2  0  0  0  0  0  0  0  0  0
   27.5553   12.8765    7.7427 O   0  0  0  0  0  0  0  0  0  0  0  0
   27.7448   14.7634    9.2646 C   0  0  2  0  0  0  0  0  0  0  0  0
   29.2610   14.6474    9.2486 N   0  0  0  0  0  0  0  0  0  0  0  0
   27.3078   12.6633    1.1394 O   0  0  0  0  0  0  0  0  0  0  0  0
   27.1329   13.9980   10.4610 C   0  0  2  0  0  0  0  0  0  0  0  0
   29.6759    9.9819   -0.8042 N   0  0  0  0  0  0  0  0  0  0  0  0
   25.6006   14.1131   10.4445 C   0  0  2  0  0  0  0  0  0  0  0  0
   24.9842   13.5648    9.0883 C   0  0  2  0  0  0  0  0  0  0  0  0
   25.6562   14.3114    7.9344 O   0  0  0  0  0  0  0  0  0  0  0  0
   23.4378   13.7357    9.0560 C   0  0  0  0  0  0  0  0  0  0  0  0
   22.7684   13.1040   10.1362 N   0  0  0  0  0  0  0  0  0  0  0  0
   26.4624   11.6435    3.7317 C   0  0  2  0  0  0  0  0  0  0  0  0
   26.4254   10.8304    2.4809 N   0  0  0  0  0  0  0  0  0  0  0  0
   28.0058   11.8018    4.1431 C   0  0  0  0  0  0  0  0  0  0  0  0
   28.1395   12.6728    5.4476 C   0  0  2  0  0  0  0  0  0  0  0  0
   29.5482   12.8083    5.8464 N   0  0  0  0  0  0  0  0  0  0  0  0
   27.3697   12.0147    6.6101 C   0  0  2  0  0  0  0  0  0  0  0  0
   25.8428   11.8399    6.2349 C   0  0  2  0  0  0  0  0  0  0  0  0
   25.1978   11.2139    7.4060 O   0  0  0  0  0  0  0  0  0  0  0  0
   25.7307   10.8912    4.9354 C   0  0  1  0  0  0  0  0  0  0  0  0
   24.3807   10.7434    4.6263 O   0  0  0  0  0  0  0  0  0  0  0  0
   25.4828   10.0709    7.9305 C   0  0  1  0  0  0  0  0  0  0  0  0
   24.6882    9.7017    9.2177 C   0  0  2  0  0  0  0  0  0  0  0  0
   25.4141   10.1508   10.3183 O   0  0  0  0  0  0  0  0  0  0  0  0
   24.7401    8.2354    9.0942 C   0  0  1  0  0  0  0  0  0  0  0  0
   24.5648    7.8680    7.5883 C   0  0  2  0  0  0  0  0  0  0  0  0
   25.3132    8.9233    7.0362 O   0  0  0  0  0  0  0  0  0  0  0  0
   23.1472    7.6485    7.0579 C   0  0  0  0  0  0  0  0  0  0  0  0
   23.2632    7.5352    5.6521 O   0  0  0  0  0  0  0  0  0  0  0  0
   26.2836    6.4756    9.8315 C   0  0  2  0  0  0  0  0  0  0  0  0
   26.0679    7.8104    9.6441 O   0  0  0  0  0  0  0  0  0  0  0  0
   27.6817    6.1896   10.2951 C   0  0  1  0  0  0  0  0  0  0  0  0
   24.4407    3.5174    6.8876 N   0  0  0  0  0  0  0  0  0  0  0  0
   25.4382   10.2138   -0.3435 O   0  0  0  0  0  0  0  0  0  0  0  0
   27.8757    4.6304   10.4414 C   0  0  2  0  0  0  0  0  0  0  0  0
   27.5781    3.8327    9.1246 C   0  0  1  0  0  0  0  0  0  0  0  0
   26.2259    4.1161    8.7043 C   0  0  1  0  0  0  0  0  0  0  0  0
   26.0129    5.6108    8.5564 O   0  0  0  0  0  0  0  0  0  0  0  0
   25.8940    3.3598    7.3438 C   0  0  0  0  0  0  0  0  0  0  0  0
   28.6108    6.6583    9.3446 N   0  0  0  0  0  0  0  0  0  0  0  0
   27.5335   14.4448   11.4337 O   0  0  0  0  0  0  0  0  0  0  0  0
   27.4009   11.1086   -1.0557 C   0  0  0  0  0  0  0  0  0  0  0  0
   28.3035    4.1938    8.3116 O   0  0  0  0  0  0  0  0  0  0  0  0
   27.1336    4.2500   11.2338 O   0  0  0  0  0  0  0  0  0  0  0  0
   26.8906   11.4994    1.2220 C   0  0  0  0  0  0  0  0  0  0  0  0
   28.7605   11.0652   -0.8422 C   0  0  0  0  0  0  0  0  0  0  0  0
   26.8032   10.4908   -0.0376 C   0  0  1  0  0  0  0  0  0  0  0  0
   25.2198   15.4593   10.5859 F   0  0  0  0  0  0  0  0  0  0  0  0
  1  2  1  1  0  0  0
  1 10  1  0  0  0  0
  1  3  1  0  0  0  0
  3  4  1  6  0  0  0
  3  6  1  0  0  0  0
  5 46  2  0  0  0  0
  6 42  1  1  0  0  0
  6  8  1  0  0  0  0
  7 47  1  0  0  0  0
  8  9  1  0  0  0  0
  8 49  1  6  0  0  0
  9 10  1  0  0  0  0
  9 11  1  1  0  0  0
 11 12  1  0  0  0  0
 13 14  1  6  0  0  0
 13 15  1  0  0  0  0
 13 21  1  0  0  0  0
 14 46  1  0  0  0  0
 15 16  1  0  0  0  0
 16 17  1  1  0  0  0
 16 18  1  0  0  0  0
 18  2  1  1  0  0  0
 18 19  1  0  0  0  0
 19 20  1  1  0  0  0
 19 21  1  0  0  0  0
 21 22  1  6  0  0  0
 23 20  1  6  0  0  0
 23 24  1  0  0  0  0
 23 28  1  0  0  0  0
 24 25  1  1  0  0  0
 24 26  1  0  0  0  0
 26 27  1  0  0  0  0
 26 32  1  6  0  0  0
 27 28  1  0  0  0  0
 27 29  1  6  0  0  0
 29 30  1  0  0  0  0
 31 32  1  6  0  0  0
 31 33  1  0  0  0  0
 31 39  1  0  0  0  0
 33 36  1  0  0  0  0
 33 41  1  6  0  0  0
 34 40  1  0  0  0  0
 35 48  1  0  0  0  0
 36 37  1  0  0  0  0
 36 45  1  1  0  0  0
 37 38  1  0  0  0  0
 37 44  1  6  0  0  0
 38 39  1  0  0  0  0
 38 40  1  6  0  0  0
 43 47  1  0  0  0  0
 46 48  1  0  0  0  0
 48 43  1  6  0  0  0
M  END
>  <CHROM.1>
-173.57322643,61.72641110,-57.20120692,-72.27616323,-60.22066905,176.56375143
170.24455553,171.32207896,176.05593669,175.33985144,65.77890825,-165.95902426
-112.69868971,26.34684644,10.08847543,6.91904112,0.64415942,1.45115245,0.10156837

>  <Name>
ligand

>  <RI>
0

>  <Rbt.Current_Directory>
/home/itssahil/PROJECTS/Mol_Feturizer/New_Systems/rnas/4PDQ

>  <Rbt.Executable>
rbdock ($Id: //depot/dev/client3/rdock/2013.1/src/exe/rbdock.cxx#4 $)

>  <Rbt.Library>
libRbt.so (2013.1, Build901 2013/11/27)

>  <Rbt.Parameter_File>
/export/apps/rDock/src/rDock_2013.1_src/data/scripts/dock_solv.prm

>  <Rbt.Receptor>
prm/pocket_docking_8.prm

>  <SCORE>
-13.4384

>  <SCORE.INTER>
-0.306558

>  <SCORE.INTER.CONST>
1

>  <SCORE.INTER.POLAR>
0

>  <SCORE.INTER.ROT>
13

>  <SCORE.INTER.SOLV>
23.1472

>  <SCORE.INTER.VDW>
-20.1868

>  <SCORE.INTER.norm>
-0.00625628

>  <SCORE.INTRA>
-13.1319

>  <SCORE.INTRA.DIHEDRAL>
-31.4496

>  <SCORE.INTRA.DIHEDRAL.0>
34.5115

>  <SCORE.INTRA.POLAR>
0

>  <SCORE.INTRA.POLAR.0>
0

>  <SCORE.INTRA.REPUL>
0

>  <SCORE.INTRA.REPUL.0>
0

>  <SCORE.INTRA.SOLV>
-0.682492

>  <SCORE.INTRA.SOLV.lig_0>
-122.812

>  <SCORE.INTRA.VDW>
2.93414

>  <SCORE.INTRA.VDW.0>
-7.46208

>  <SCORE.INTRA.norm>
-0.267998

>  <SCORE.RESTR>
0

>  <SCORE.RESTR.CAVITY>
0

>  <SCORE.RESTR.norm>
0

>  <SCORE.SYSTEM>
0

>  <SCORE.SYSTEM.CONST>
0

>  <SCORE.SYSTEM.DIHEDRAL>
0

>  <SCORE.SYSTEM.SOLV>
0

>  <SCORE.SYSTEM.norm>
0

>  <SCORE.heavy>
49

>  <SCORE.norm>
-0.274254

>  <RMSD>
7.718

$$$$
ligand
 OpenBabel11021811513D
libRbt.so/2013.1/901 2013/11/27
 49 52  0  0  0  0  0  0  0  0999 V2000
   27.9221    9.5183    8.2226 C   0  0  2  0  0  0  0  0  0  0  0  0
   28.0373   10.5358    7.2722 O   0  0  0  0  0  0  0  0  0  0  0  0
   26.5383    8.7878    8.0534 C   0  0  2  0  0  0  0  0  0  0  0  0
   26.4464    8.2135    6.6483 N   0  0  0  0  0  0  0  0  0  0  0  0
   31.6503    9.6252    2.9189 O   0  0  0  0  0  0  0  0  0  0  0  0
   25.3746    9.7651    8.3407 C   0  0  2  0  0  0  0  0  0  0  0  0
   35.8275   10.2298   -0.0641 N   0  0  0  0  0  0  0  0  0  0  0  0
   25.5001   10.3469    9.7575 C   0  0  2  0  0  0  0  0  0  0  0  0
   26.8864   11.0912    9.9670 C   0  0  2  0  0  0  0  0  0  0  0  0
   28.0031   10.1047    9.6206 O   0  0  0  0  0  0  0  0  0  0  0  0
   27.0296   11.6292   11.4201 C   0  0  0  0  0  0  0  0  0  0  0  0
   25.9621   12.4709   11.8277 N   0  0  0  0  0  0  0  0  0  0  0  0
   30.7517   12.0531    4.2501 C   0  0  2  0  0  0  0  0  0  0  0  0
   31.7183   12.0532    3.1132 N   0  0  0  0  0  0  0  0  0  0  0  0
   31.2254   10.9067    5.2689 C   0  0  0  0  0  0  0  0  0  0  0  0
   30.2690   10.8534    6.5182 C   0  0  2  0  0  0  0  0  0  0  0  0
   30.6809    9.7930    7.4498 N   0  0  0  0  0  0  0  0  0  0  0  0
   28.8216   10.5675    6.0707 C   0  0  2  0  0  0  0  0  0  0  0  0
   28.3243   11.6788    5.0605 C   0  0  2  0  0  0  0  0  0  0  0  0
   26.9378   11.3210    4.7012 O   0  0  0  0  0  0  0  0  0  0  0  0
   29.2806   11.6681    3.7617 C   0  0  1  0  0  0  0  0  0  0  0  0
   28.8224   12.6463    2.8825 O   0  0  0  0  0  0  0  0  0  0  0  0
   26.5623   10.4639    3.8140 C   0  0  1  0  0  0  0  0  0  0  0  0
   27.1417    9.0276    3.9749 C   0  0  2  0  0  0  0  0  0  0  0  0
   28.3235    8.9528    3.2416 O   0  0  0  0  0  0  0  0  0  0  0  0
   26.0522    8.2780    3.3276 C   0  0  1  0  0  0  0  0  0  0  0  0
   24.6987    8.9362    3.7379 C   0  0  2  0  0  0  0  0  0  0  0  0
   25.1128   10.2801    3.7097 O   0  0  0  0  0  0  0  0  0  0  0  0
   24.0046    8.4326    5.0042 C   0  0  0  0  0  0  0  0  0  0  0  0
   23.3847    9.5611    5.5916 O   0  0  0  0  0  0  0  0  0  0  0  0
   26.2915    9.5778    1.2595 C   0  0  2  0  0  0  0  0  0  0  0  0
   26.3076    8.3482    1.8524 O   0  0  0  0  0  0  0  0  0  0  0  0
   24.9593    9.8901    0.6442 C   0  0  1  0  0  0  0  0  0  0  0  0
   29.9498   10.6881   -1.0773 N   0  0  0  0  0  0  0  0  0  0  0  0
   34.1784   11.7743    1.6824 O   0  0  0  0  0  0  0  0  0  0  0  0
   25.0276   11.2983   -0.0647 C   0  0  2  0  0  0  0  0  0  0  0  0
   26.1531   11.4019   -1.1516 C   0  0  1  0  0  0  0  0  0  0  0  0
   27.4249   11.1071   -0.5342 C   0  0  1  0  0  0  0  0  0  0  0  0
   27.3854    9.7567    0.1556 O   0  0  0  0  0  0  0  0  0  0  0  0
   28.5942   11.1577   -1.6128 C   0  0  0  0  0  0  0  0  0  0  0  0
   24.6399    8.9246   -0.3315 N   0  0  0  0  0  0  0  0  0  0  0  0
   24.3841    9.2019    8.2514 O   0  0  0  0  0  0  0  0  0  0  0  0
   33.6043    9.6682    1.0542 C   0  0  0  0  0  0  0  0  0  0  0  0
   25.9439   10.6186   -1.9642 O   0  0  0  0  0  0  0  0  0  0  0  0
   25.2655   12.0905    0.7347 O   0  0  0  0  0  0  0  0  0  0  0  0
   32.0871   10.7196    2.5352 C   0  0  0  0  0  0  0  0  0  0  0  0
   34.4877    9.7680    0.0026 C   0  0  0  0  0  0  0  0  0  0  0  0
   33.1272   10.8858    1.3096 C   0  0  1  0  0  0  0  0  0  0  0  0
   25.4086    9.3154   10.7088 F   0  0  0  0  0  0  0  0  0  0  0  0
  1  2  1  6  0  0  0
  1 10  1  0  0  0  0
  1  3  1  0  0  0  0
  3  4  1  6  0  0  0
  3  6  1  0  0  0  0
  5 46  2  0  0  0  0
  6 42  1  1  0  0  0
  6  8  1  0  0  0  0
  7 47  1  0  0  0  0
  8  9  1  0  0  0  0
  8 49  1  1  0  0  0
  9 10  1  0  0  0  0
  9 11  1  1  0  0  0
 11 12  1  0  0  0  0
 13 14  1  6  0  0  0
 13 15  1  0  0  0  0
 13 21  1  0  0  0  0
 14 46  1  0  0  0  0
 15 16  1  0  0  0  0
 16 17  1  1  0  0  0
 16 18  1  0  0  0  0
 18  2  1  1  0  0  0
 18 19  1  0  0  0  0
 19 20  1  6  0  0  0
 19 21  1  0  0  0  0
 21 22  1  6  0  0  0
 23 20  1  1  0  0  0
 23 24  1  0  0  0  0
 23 28  1  0  0  0  0
 24 25  1  6  0  0  0
 24 26  1  0  0  0  0
 26 27  1  0  0  0  0
 26 32  1  6  0  0  0
 27 28  1  0  0  0  0
 27 29  1  1  0  0  0
 29 30  1  0  0  0  0
 31 32  1  6  0  0  0
 31 33  1  0  0  0  0
 31 39  1  0  0  0  0
 33 36  1  0  0  0  0
 33 41  1  6  0  0  0
 34 40  1  0  0  0  0
 35 48  1  0  0  0  0
 36 37  1  0  0  0  0
 36 45  1  1  0  0  0
 37 38  1  0  0  0  0
 37 44  1  6  0  0  0
 38 39  1  0  0  0  0
 38 40  1  6  0  0  0
 43 47  1  0  0  0  0
 46 48  1  0  0  0  0
 48 43  1  1  0  0  0
M  END
>  <CHROM.1>
-104.91106090,-77.78529043,-54.96739299,45.69148322,-82.13813244,55.05094881
-62.52588815,145.03990273,-96.04350468,-172.84868139,77.26664947,-61.16393198
-133.66856354,27.97498265,10.31760309,4.08645978,-2.01936961,-0.12760682
-1.57732166

>  <Name>
ligand

>  <RI>
0

>  <Rbt.Current_Directory>
/home/itssahil/PROJECTS/Mol_Feturizer/New_Systems/rnas/4PDQ

>  <Rbt.Executable>
rbdock ($Id: //depot/dev/client3/rdock/2013.1/src/exe/rbdock.cxx#4 $)

>  <Rbt.Library>
libRbt.so (2013.1, Build901 2013/11/27)

>  <Rbt.Parameter_File>
/export/apps/rDock/src/rDock_2013.1_src/data/scripts/dock_solv.prm

>  <Rbt.Receptor>
prm/pocket_docking_2.prm

>  <SCORE>
10.5818

>  <SCORE.INTER>
1.06732

>  <SCORE.INTER.CONST>
1

>  <SCORE.INTER.POLAR>
0

>  <SCORE.INTER.ROT>
13

>  <SCORE.INTER.SOLV>
18.2119

>  <SCORE.INTER.VDW>
-17.6257

>  <SCORE.INTER.norm>
0.0217821

>  <SCORE.INTRA>
3.89692

>  <SCORE.INTRA.DIHEDRAL>
-14.0411

>  <SCORE.INTRA.DIHEDRAL.0>
34.5115

>  <SCORE.INTRA.POLAR>
0

>  <SCORE.INTRA.POLAR.0>
0

>  <SCORE.INTRA.REPUL>
0.107755

>  <SCORE.INTRA.REPUL.0>
0

>  <SCORE.INTRA.SOLV>
7.56505

>  <SCORE.INTRA.SOLV.lig_0>
-122.812

>  <SCORE.INTRA.VDW>
6.59615

>  <SCORE.INTRA.VDW.0>
-7.46208

>  <SCORE.INTRA.norm>
0.079529

>  <SCORE.RESTR>
5.61758

>  <SCORE.RESTR.CAVITY>
5.61758

>  <SCORE.RESTR.norm>
0.114645

>  <SCORE.SYSTEM>
0

>  <SCORE.SYSTEM.CONST>
0

>  <SCORE.SYSTEM.DIHEDRAL>
0

>  <SCORE.SYSTEM.SOLV>
0

>  <SCORE.SYSTEM.norm>
0

>  <SCORE.heavy>
49

>  <SCORE.norm>
0.215956

>  <RMSD>
7.738

$$$$
ligand
 OpenBabel11021811513D
libRbt.so/2013.1/901 2013/11/27
 49 52  0  0  0  0  0  0  0  0999 V2000
   28.1219    9.6736    7.9266 C   0  0  2  0  0  0  0  0  0  0  0  0
   29.5003    9.5059    7.7726 O   0  0  0  0  0  0  0  0  0  0  0  0
   27.8315   10.5230    9.2194 C   0  0  2  0  0  0  0  0  0  0  0  0
   28.5188   11.8736    9.0932 N   0  0  0  0  0  0  0  0  0  0  0  0
   32.0216    7.5255    3.0087 O   0  0  0  0  0  0  0  0  0  0  0  0
   28.3061    9.7640   10.4805 C   0  0  2  0  0  0  0  0  0  0  0  0
   36.5246    6.6414    0.1832 N   0  0  0  0  0  0  0  0  0  0  0  0
   27.6134    8.3955   10.5755 C   0  0  2  0  0  0  0  0  0  0  0  0
   27.8824    7.5095    9.2862 C   0  0  2  0  0  0  0  0  0  0  0  0
   27.4483    8.3200    8.0636 O   0  0  0  0  0  0  0  0  0  0  0  0
   27.1328    6.1480    9.3649 C   0  0  0  0  0  0  0  0  0  0  0  0
   27.4458    5.3870   10.5211 N   0  0  0  0  0  0  0  0  0  0  0  0
   32.8300    9.4945    4.9948 C   0  0  2  0  0  0  0  0  0  0  0  0
   33.7025    9.0705    3.8607 N   0  0  0  0  0  0  0  0  0  0  0  0
   32.4491    8.1685    5.8152 C   0  0  0  0  0  0  0  0  0  0  0  0
   31.5440    8.5293    7.0517 C   0  0  2  0  0  0  0  0  0  0  0  0
   31.1714    7.3199    7.8003 N   0  0  0  0  0  0  0  0  0  0  0  0
   30.2503    9.2240    6.5819 C   0  0  2  0  0  0  0  0  0  0  0  0
   30.5910   10.5351    5.7646 C   0  0  2  0  0  0  0  0  0  0  0  0
   29.2965   11.1249    5.3699 O   0  0  0  0  0  0  0  0  0  0  0  0
   31.4624   10.1302    4.4692 C   0  0  1  0  0  0  0  0  0  0  0  0
   31.7449   11.2951    3.7600 O   0  0  0  0  0  0  0  0  0  0  0  0
   28.3426   10.5433    4.7259 C   0  0  1  0  0  0  0  0  0  0  0  0
   27.1031   11.4307    4.4083 C   0  0  2  0  0  0  0  0  0  0  0  0
   26.1945   11.2959    5.4552 O   0  0  0  0  0  0  0  0  0  0  0  0
   26.6413   10.7357    3.1951 C   0  0  1  0  0  0  0  0  0  0  0  0
   27.8956   10.3169    2.3676 C   0  0  2  0  0  0  0  0  0  0  0  0
   28.7332    9.9607    3.4400 O   0  0  0  0  0  0  0  0  0  0  0  0
   28.4431   11.3034    1.3352 C   0  0  0  0  0  0  0  0  0  0  0  0
   29.4634   10.6177    0.6341 O   0  0  0  0  0  0  0  0  0  0  0  0
   25.3630    8.6962    2.7157 C   0  0  2  0  0  0  0  0  0  0  0  0
   25.8348    9.5613    3.6605 O   0  0  0  0  0  0  0  0  0  0  0  0
   24.3115    7.7783    3.2661 C   0  0  1  0  0  0  0  0  0  0  0  0
   28.4201    6.9120   -0.0348 N   0  0  0  0  0  0  0  0  0  0  0  0
   34.9462    8.8643    1.4086 O   0  0  0  0  0  0  0  0  0  0  0  0
   23.8497    6.7759    2.1383 C   0  0  2  0  0  0  0  0  0  0  0  0
   25.0224    5.9347    1.5251 C   0  0  1  0  0  0  0  0  0  0  0  0
   26.0155    6.8386    0.9940 C   0  0  1  0  0  0  0  0  0  0  0  0
   26.4764    7.8145    2.0600 O   0  0  0  0  0  0  0  0  0  0  0  0
   27.2483    6.0267    0.3990 C   0  0  0  0  0  0  0  0  0  0  0  0
   24.8400    7.0232    4.3323 N   0  0  0  0  0  0  0  0  0  0  0  0
   28.0478   10.3818   11.4068 O   0  0  0  0  0  0  0  0  0  0  0  0
   34.9960    6.7444    2.2231 C   0  0  0  0  0  0  0  0  0  0  0  0
   25.4975    5.3118    2.3640 O   0  0  0  0  0  0  0  0  0  0  0  0
   23.3970    7.3896    1.2771 O   0  0  0  0  0  0  0  0  0  0  0  0
   33.1447    8.0422    2.9225 C   0  0  0  0  0  0  0  0  0  0  0  0
   35.6229    6.1395    1.1567 C   0  0  0  0  0  0  0  0  0  0  0  0
   34.1976    7.6984    1.7458 C   0  0  1  0  0  0  0  0  0  0  0  0
   26.2241    8.5699   10.7051 F   0  0  0  0  0  0  0  0  0  0  0  0
  1  2  1  1  0  0  0
  1 10  1  0  0  0  0
  1  3  1  0  0  0  0
  3  4  1  6  0  0  0
  3  6  1  0  0  0  0
  5 46  2  0  0  0  0
  6 42  1  1  0  0  0
  6  8  1  0  0  0  0
  7 47  1  0  0  0  0
  8  9  1  0  0  0  0
  8 49  1  6  0  0  0
  9 10  1  0  0  0  0
  9 11  1  1  0  0  0
 11 12  1  0  0  0  0
 13 14  1  6  0  0  0
 13 15  1  0  0  0  0
 13 21  1  0  0  0  0
 14 46  1  0  0  0  0
 15 16  1  0  0  0  0
 16 17  1  6  0  0  0
 16 18  1  0  0  0  0
 18  2  1  1  0  0  0
 18 19  1  0  0  0  0
 19 20  1  6  0  0  0
 19 21  1  0  0  0  0
 21 22  1  1  0  0  0
 23 20  1  6  0  0  0
 23 24  1  0  0  0  0
 23 28  1  0  0  0  0
 24 25  1  1  0  0  0
 24 26  1  0  0  0  0
 26 27  1  0  0  0  0
 26 32  1  1  0  0  0
 27 28  1  0  0  0  0
 27 29  1  1  0  0  0
 29 30  1  0  0  0  0
 31 32  1  1  0  0  0
 31 33  1  0  0  0  0
 31 39  1  0  0  0  0
 33 36  1  0  0  0  0
 33 41  1  1  0  0  0
 34 40  1  0  0  0  0
 35 48  1  0  0  0  0
 36 37  1  0  0  0  0
 36 45  1  6  0  0  0
 37 38  1  0  0  0  0
 37 44  1  1  0  0  0
 38 39  1  0  0  0  0
 38 40  1  1  0  0  0
 43 47  1  0  0  0  0
 46 48  1  0  0  0  0
 48 43  1  1  0  0  0
M  END
>  <CHROM.1>
-156.73221201,-154.82673112,-56.26519752,56.76160495,-54.61163825,-178.16762478
-175.72575394,-173.33017570,-165.96107908,-173.16438361,62.79709031,-78.76710897
145.39348554,28.94161631,8.68318044,4.76700324,-2.25415035,-0.05837160,-1.74072814

>  <Name>
ligand

>  <RI>
0

>  <Rbt.Current_Directory>
/home/itssahil/PROJECTS/Mol_Feturizer/New_Systems/rnas/4PDQ

>  <Rbt.Executable>
rbdock ($Id: //depot/dev/client3/rdock/2013.1/src/exe/rbdock.cxx#4 $)

>  <Rbt.Library>
libRbt.so (2013.1, Build901 2013/11/27)

>  <Rbt.Parameter_File>
/export/apps/rDock/src/rDock_2013.1_src/data/scripts/dock_solv.prm

>  <Rbt.Receptor>
prm/pocket_docking_6.prm

>  <SCORE>
-15.5091

>  <SCORE.INTER>
-4.48497

>  <SCORE.INTER.CONST>
1

>  <SCORE.INTER.POLAR>
0

>  <SCORE.INTER.ROT>
13

>  <SCORE.INTER.SOLV>
17.6755

>  <SCORE.INTER.VDW>
-21.1485

>  <SCORE.INTER.norm>
-0.0915301

>  <SCORE.INTRA>
-11.0241

>  <SCORE.INTRA.DIHEDRAL>
-25.1919

>  <SCORE.INTRA.DIHEDRAL.0>
34.5115

>  <SCORE.INTRA.POLAR>
0

>  <SCORE.INTRA.POLAR.0>
0

>  <SCORE.INTRA.REPUL>
0

>  <SCORE.INTRA.REPUL.0>
0

>  <SCORE.INTRA.SOLV>
-0.41591

>  <SCORE.INTRA.SOLV.lig_0>
-122.812

>  <SCORE.INTRA.VDW>
1.77979

>  <SCORE.INTRA.VDW.0>
-7.46208

>  <SCORE.INTRA.norm>
-0.224982

>  <SCORE.RESTR>
0

>  <SCORE.RESTR.CAVITY>
0

>  <SCORE.RESTR.norm>
0

>  <SCORE.SYSTEM>
0

>  <SCORE.SYSTEM.CONST>
0

>  <SCORE.SYSTEM.DIHEDRAL>
0

>  <SCORE.SYSTEM.SOLV>
0

>  <SCORE.SYSTEM.norm>
0

>  <SCORE.heavy>
49

>  <SCORE.norm>
-0.316512

>  <RMSD>
7.740

$$$$
ligand
 OpenBabel11021811513D
libRbt.so/2013.1/901 2013/11/27
 49 52  0  0  0  0  0  0  0  0999 V2000
   27.6963   14.0363    6.7199 C   0  0  2  0  0  0  0  0  0  0  0  0
   28.0445   12.6839    6.6764 O   0  0  0  0  0  0  0  0  0  0  0  0
   28.4117   14.7297    7.9383 C   0  0  2  0  0  0  0  0  0  0  0  0
   29.9168   14.5746    7.7868 N   0  0  0  0  0  0  0  0  0  0  0  0
   26.7646    8.0715    3.4569 O   0  0  0  0  0  0  0  0  0  0  0  0
   27.9134   14.1242    9.2713 C   0  0  2  0  0  0  0  0  0  0  0  0
   26.8534    5.4462   -0.4048 N   0  0  0  0  0  0  0  0  0  0  0  0
   26.3889   14.2751    9.3924 C   0  0  2  0  0  0  0  0  0  0  0  0
   25.6317   13.5884    8.1780 C   0  0  2  0  0  0  0  0  0  0  0  0
   26.1937   14.1785    6.8834 O   0  0  0  0  0  0  0  0  0  0  0  0
   24.0923   13.7931    8.2783 C   0  0  0  0  0  0  0  0  0  0  0  0
   23.6727   15.1239    8.0195 N   0  0  0  0  0  0  0  0  0  0  0  0
   25.8437   10.8330    3.4309 C   0  0  2  0  0  0  0  0  0  0  0  0
   25.4723    9.8367    2.3837 N   0  0  0  0  0  0  0  0  0  0  0  0
   27.4257   11.0752    3.3083 C   0  0  0  0  0  0  0  0  0  0  0  0
   27.9018   12.1383    4.3673 C   0  0  2  0  0  0  0  0  0  0  0  0
   29.3535   12.3541    4.2785 N   0  0  0  0  0  0  0  0  0  0  0  0
   27.5718   11.6556    5.7938 C   0  0  2  0  0  0  0  0  0  0  0  0
   26.0177   11.4028    5.9476 C   0  0  2  0  0  0  0  0  0  0  0  0
   25.8067   10.9549    7.3384 O   0  0  0  0  0  0  0  0  0  0  0  0
   25.5684   10.2640    4.8975 C   0  0  1  0  0  0  0  0  0  0  0  0
   24.2010   10.0507    5.0538 O   0  0  0  0  0  0  0  0  0  0  0  0
   26.3480    9.9375    7.9168 C   0  0  1  0  0  0  0  0  0  0  0  0
   27.8478   10.0990    8.3028 C   0  0  2  0  0  0  0  0  0  0  0  0
   28.6205    9.6391    7.2391 O   0  0  0  0  0  0  0  0  0  0  0  0
   27.8824    9.1672    9.4423 C   0  0  1  0  0  0  0  0  0  0  0  0
   26.5510    9.3251   10.2398 C   0  0  2  0  0  0  0  0  0  0  0  0
   25.6830    9.5026    9.1474 O   0  0  0  0  0  0  0  0  0  0  0  0
   26.5001   10.3609   11.3639 C   0  0  0  0  0  0  0  0  0  0  0  0
   26.8176   11.6057   10.7703 O   0  0  0  0  0  0  0  0  0  0  0  0
   28.4321    6.7897    9.7044 C   0  0  2  0  0  0  0  0  0  0  0  0
   28.0523    7.7954    8.8631 O   0  0  0  0  0  0  0  0  0  0  0  0
   28.4912    5.4626    9.0068 C   0  0  1  0  0  0  0  0  0  0  0  0
   25.4033    5.3893   12.7571 N   0  0  0  0  0  0  0  0  0  0  0  0
   24.1364    7.6878    1.1062 O   0  0  0  0  0  0  0  0  0  0  0  0
   28.8851    4.3424   10.0460 C   0  0  2  0  0  0  0  0  0  0  0  0
   27.9152    4.2548   11.2750 C   0  0  1  0  0  0  0  0  0  0  0  0
   27.8827    5.5390   11.9348 C   0  0  1  0  0  0  0  0  0  0  0  0
   27.5063    6.6349   10.9558 O   0  0  0  0  0  0  0  0  0  0  0  0
   26.8743    5.5089   13.1658 C   0  0  0  0  0  0  0  0  0  0  0  0
   27.2265    5.1401    8.4749 N   0  0  0  0  0  0  0  0  0  0  0  0
   28.4159   14.6710   10.1401 O   0  0  0  0  0  0  0  0  0  0  0  0
   26.2397    7.8314    0.2604 C   0  0  0  0  0  0  0  0  0  0  0  0
   26.8629    4.0089   10.8881 O   0  0  0  0  0  0  0  0  0  0  0  0
   29.9273    4.5922   10.4640 O   0  0  0  0  0  0  0  0  0  0  0  0
   26.0306    8.4531    2.5343 C   0  0  0  0  0  0  0  0  0  0  0  0
   26.2956    6.7394   -0.5764 C   0  0  0  0  0  0  0  0  0  0  0  0
   25.5300    7.4916    1.3357 C   0  0  1  0  0  0  0  0  0  0  0  0
   26.0423   15.6377    9.4105 F   0  0  0  0  0  0  0  0  0  0  0  0
  1  2  1  1  0  0  0
  1 10  1  0  0  0  0
  1  3  1  0  0  0  0
  3  4  1  6  0  0  0
  3  6  1  0  0  0  0
  5 46  2  0  0  0  0
  6 42  1  1  0  0  0
  6  8  1  0  0  0  0
  7 47  1  0  0  0  0
  8  9  1  0  0  0  0
  8 49  1  6  0  0  0
  9 10  1  0  0  0  0
  9 11  1  1  0  0  0
 11 12  1  0  0  0  0
 13 14  1  6  0  0  0
 13 15  1  0  0  0  0
 13 21  1  0  0  0  0
 14 46  1  0  0  0  0
 15 16  1  0  0  0  0
 16 17  1  1  0  0  0
 16 18  1  0  0  0  0
 18  2  1  1  0  0  0
 18 19  1  0  0  0  0
 19 20  1  1  0  0  0
 19 21  1  0  0  0  0
 21 22  1  6  0  0  0
 23 20  1  1  0  0  0
 23 24  1  0  0  0  0
 23 28  1  0  0  0  0
 24 25  1  6  0  0  0
 24 26  1  0  0  0  0
 26 27  1  0  0  0  0
 26 32  1  6  0  0  0
 27 28  1  0  0  0  0
 27 29  1  1  0  0  0
 29 30  1  0  0  0  0
 31 32  1  6  0  0  0
 31 33  1  0  0  0  0
 31 39  1  0  0  0  0
 33 36  1  0  0  0  0
 33 41  1  1  0  0  0
 34 40  1  0  0  0  0
 35 48  1  0  0  0  0
 36 37  1  0  0  0  0
 36 45  1  1  0  0  0
 37 38  1  0  0  0  0
 37 44  1  6  0  0  0
 38 39  1  0  0  0  0
 38 40  1  1  0  0  0
 43 47  1  0  0  0  0
 46 48  1  0  0  0  0
 48 43  1  6  0  0  0
M  END
>  <CHROM.1>
175.87126093,58.15504393,71.30676444,65.58584091,-57.52798594,74.13801940
164.62271296,57.92455753,176.92734966,-68.69010662,-62.57929747,-86.18172757
134.88407728,26.90890301,9.79783846,7.28404214,-2.98490527,1.42291920,-2.73268633

>  <Name>
ligand

>  <RI>
0

>  <Rbt.Current_Directory>
/home/itssahil/PROJECTS/Mol_Feturizer/New_Systems/rnas/4PDQ

>  <Rbt.Executable>
rbdock ($Id: //depot/dev/client3/rdock/2013.1/src/exe/rbdock.cxx#4 $)

>  <Rbt.Library>
libRbt.so (2013.1, Build901 2013/11/27)

>  <Rbt.Parameter_File>
/export/apps/rDock/src/rDock_2013.1_src/data/scripts/dock_solv.prm

>  <Rbt.Receptor>
prm/pocket_docking_6.prm

>  <SCORE>
-12.8481

>  <SCORE.INTER>
-1.0254

>  <SCORE.INTER.CONST>
1

>  <SCORE.INTER.POLAR>
0

>  <SCORE.INTER.ROT>
13

>  <SCORE.INTER.SOLV>
17.4281

>  <SCORE.INTER.VDW>
-18.7596

>  <SCORE.INTER.norm>
-0.0209266

>  <SCORE.INTRA>
-11.8227

>  <SCORE.INTRA.DIHEDRAL>
-28.2917

>  <SCORE.INTRA.DIHEDRAL.0>
34.5115

>  <SCORE.INTRA.POLAR>
0

>  <SCORE.INTRA.POLAR.0>
0

>  <SCORE.INTRA.REPUL>
0

>  <SCORE.INTRA.REPUL.0>
0

>  <SCORE.INTRA.SOLV>
2.07753

>  <SCORE.INTRA.SOLV.lig_0>
-122.812

>  <SCORE.INTRA.VDW>
1.28432

>  <SCORE.INTRA.VDW.0>
-7.46208

>  <SCORE.INTRA.norm>
-0.24128

>  <SCORE.RESTR>
0

>  <SCORE.RESTR.CAVITY>
0

>  <SCORE.RESTR.norm>
0

>  <SCORE.SYSTEM>
0

>  <SCORE.SYSTEM.CONST>
0

>  <SCORE.SYSTEM.DIHEDRAL>
0

>  <SCORE.SYSTEM.SOLV>
0

>  <SCORE.SYSTEM.norm>
0

>  <SCORE.heavy>
49

>  <SCORE.norm>
-0.262207

>  <RMSD>
7.743

$$$$
ligand
 OpenBabel11021811513D
libRbt.so/2013.1/901 2013/11/27
 49 52  0  0  0  0  0  0  0  0999 V2000
   28.4694    9.2425    8.6640 C   0  0  2  0  0  0  0  0  0  0  0  0
   28.4495    9.4976    7.2905 O   0  0  0  0  0  0  0  0  0  0  0  0
   28.0836    7.7401    8.9307 C   0  0  2  0  0  0  0  0  0  0  0  0
   29.0714    6.8364    8.2095 N   0  0  0  0  0  0  0  0  0  0  0  0
   31.5235   11.4727    1.4713 O   0  0  0  0  0  0  0  0  0  0  0  0
   26.6316    7.4674    8.4734 C   0  0  2  0  0  0  0  0  0  0  0  0
   37.2944   10.7916    1.4057 N   0  0  0  0  0  0  0  0  0  0  0  0
   25.6551    8.4052    9.2005 C   0  0  2  0  0  0  0  0  0  0  0  0
   26.0140    9.9320    8.9562 C   0  0  2  0  0  0  0  0  0  0  0  0
   27.4713   10.1415    9.3716 O   0  0  0  0  0  0  0  0  0  0  0  0
   25.0552   10.8744    9.7400 C   0  0  0  0  0  0  0  0  0  0  0  0
   23.7021   10.7940    9.3199 N   0  0  0  0  0  0  0  0  0  0  0  0
   31.2754   10.1994    4.0774 C   0  0  2  0  0  0  0  0  0  0  0  0
   32.4419    9.9875    3.1710 N   0  0  0  0  0  0  0  0  0  0  0  0
   31.7923    9.9432    5.5753 C   0  0  0  0  0  0  0  0  0  0  0  0
   30.6238   10.1707    6.6054 C   0  0  2  0  0  0  0  0  0  0  0  0
   31.0798    9.9193    7.9804 N   0  0  0  0  0  0  0  0  0  0  0  0
   29.4520    9.2155    6.3031 C   0  0  2  0  0  0  0  0  0  0  0  0
   28.9206    9.4394    4.8298 C   0  0  2  0  0  0  0  0  0  0  0  0
   27.8048    8.4909    4.6436 O   0  0  0  0  0  0  0  0  0  0  0  0
   30.1178    9.1367    3.7922 C   0  0  1  0  0  0  0  0  0  0  0  0
   29.6286    9.3314    2.5029 O   0  0  0  0  0  0  0  0  0  0  0  0
   26.8637    8.5624    3.7649 C   0  0  1  0  0  0  0  0  0  0  0  0
   25.6767    7.5746    3.9649 C   0  0  2  0  0  0  0  0  0  0  0  0
   25.9602    6.4084    3.2581 O   0  0  0  0  0  0  0  0  0  0  0  0
   24.6214    8.3646    3.3091 C   0  0  1  0  0  0  0  0  0  0  0  0
   24.8366    9.8648    3.6785 C   0  0  2  0  0  0  0  0  0  0  0  0
   26.2424    9.8824    3.6337 O   0  0  0  0  0  0  0  0  0  0  0  0
   24.1588   10.4034    4.9392 C   0  0  0  0  0  0  0  0  0  0  0  0
   24.6379   11.7235    5.1135 O   0  0  0  0  0  0  0  0  0  0  0  0
   24.4808    9.1343    0.9828 C   0  0  2  0  0  0  0  0  0  0  0  0
   24.7498    8.1052    1.8385 O   0  0  0  0  0  0  0  0  0  0  0  0
   24.2210    8.6531   -0.4143 C   0  0  1  0  0  0  0  0  0  0  0  0
   27.3228   12.4302    1.3843 N   0  0  0  0  0  0  0  0  0  0  0  0
   33.6100   10.9034   -0.3249 O   0  0  0  0  0  0  0  0  0  0  0  0
   23.9691    9.8935   -1.3566 C   0  0  2  0  0  0  0  0  0  0  0  0
   25.1459   10.9299   -1.3610 C   0  0  1  0  0  0  0  0  0  0  0  0
   25.3703   11.3851   -0.0089 C   0  0  1  0  0  0  0  0  0  0  0  0
   25.6150   10.2098    0.9184 O   0  0  0  0  0  0  0  0  0  0  0  0
   26.5883   12.4084    0.0408 C   0  0  0  0  0  0  0  0  0  0  0  0
   25.3445    7.9553   -0.9013 N   0  0  0  0  0  0  0  0  0  0  0  0
   26.3622    6.3831    8.7144 O   0  0  0  0  0  0  0  0  0  0  0  0
   34.7610   10.9901    1.6315 C   0  0  0  0  0  0  0  0  0  0  0  0
   26.0924   10.4003   -1.7368 O   0  0  0  0  0  0  0  0  0  0  0  0
   23.0386   10.4510   -0.9737 O   0  0  0  0  0  0  0  0  0  0  0  0
   32.4218   10.7116    1.8579 C   0  0  0  0  0  0  0  0  0  0  0  0
   35.9379   10.5618    1.0592 C   0  0  0  0  0  0  0  0  0  0  0  0
   33.7526   10.3920    0.9985 C   0  0  1  0  0  0  0  0  0  0  0  0
   25.6977    8.1613   10.5847 F   0  0  0  0  0  0  0  0  0  0  0  0
  1  2  1  6  0  0  0
  1 10  1  0  0  0  0
  1  3  1  0  0  0  0
  3  4  1  6  0  0  0
  3  6  1  0  0  0  0
  5 46  2  0  0  0  0
  6 42  1  1  0  0  0
  6  8  1  0  0  0  0
  7 47  1  0  0  0  0
  8  9  1  0  0  0  0
  8 49  1  1  0  0  0
  9 10  1  0  0  0  0
  9 11  1  1  0  0  0
 11 12  1  0  0  0  0
 13 14  1  6  0  0  0
 13 15  1  0  0  0  0
 13 21  1  0  0  0  0
 14 46  1  0  0  0  0
 15 16  1  0  0  0  0
 16 17  1  1  0  0  0
 16 18  1  0  0  0  0
 18  2  1  1  0  0  0
 18 19  1  0  0  0  0
 19 20  1  6  0  0  0
 19 21  1  0  0  0  0
 21 22  1  6  0  0  0
 23 20  1  1  0  0  0
 23 24  1  0  0  0  0
 23 28  1  0  0  0  0
 24 25  1  6  0  0  0
 24 26  1  0  0  0  0
 26 27  1  0  0  0  0
 26 32  1  6  0  0  0
 27 28  1  0  0  0  0
 27 29  1  1  0  0  0
 29 30  1  0  0  0  0
 31 32  1  1  0  0  0
 31 33  1  0  0  0  0
 31 39  1  0  0  0  0
 33 36  1  0  0  0  0
 33 41  1  6  0  0  0
 34 40  1  0  0  0  0
 35 48  1  0  0  0  0
 36 37  1  0  0  0  0
 36 45  1  1  0  0  0
 37 38  1  0  0  0  0
 37 44  1  1  0  0  0
 38 39  1  0  0  0  0
 38 40  1  6  0  0  0
 43 47  1  0  0  0  0
 46 48  1  0  0  0  0
 48 43  1  1  0  0  0
M  END
>  <CHROM.1>
-81.13238521,-69.33654963,-64.07193449,-153.95509493,159.66106050,-169.07608910
-144.78282880,173.57506185,-161.89610209,-152.33180422,-174.21668623,-70.34759261
-10.64461361,27.88311306,9.62238299,4.00116830,-2.10285449,-0.09479260,-1.41334808

>  <Name>
ligand

>  <RI>
0

>  <Rbt.Current_Directory>
/home/itssahil/PROJECTS/Mol_Feturizer/New_Systems/rnas/4PDQ

>  <Rbt.Executable>
rbdock ($Id: //depot/dev/client3/rdock/2013.1/src/exe/rbdock.cxx#4 $)

>  <Rbt.Library>
libRbt.so (2013.1, Build901 2013/11/27)

>  <Rbt.Parameter_File>
/export/apps/rDock/src/rDock_2013.1_src/data/scripts/dock_solv.prm

>  <Rbt.Receptor>
prm/pocket_docking_3.prm

>  <SCORE>
-7.99018

>  <SCORE.INTER>
-1.74318

>  <SCORE.INTER.CONST>
1

>  <SCORE.INTER.POLAR>
0

>  <SCORE.INTER.ROT>
13

>  <SCORE.INTER.SOLV>
25.3783

>  <SCORE.INTER.VDW>
-21.8882

>  <SCORE.INTER.norm>
-0.0355751

>  <SCORE.INTRA>
-6.61537

>  <SCORE.INTRA.DIHEDRAL>
-19.1557

>  <SCORE.INTRA.DIHEDRAL.0>
34.5115

>  <SCORE.INTRA.POLAR>
0

>  <SCORE.INTRA.POLAR.0>
0

>  <SCORE.INTRA.REPUL>
0.00135906

>  <SCORE.INTRA.REPUL.0>
0

>  <SCORE.INTRA.SOLV>
0.149439

>  <SCORE.INTRA.SOLV.lig_0>
-122.812

>  <SCORE.INTRA.VDW>
2.88096

>  <SCORE.INTRA.VDW.0>
-7.46208

>  <SCORE.INTRA.norm>
-0.135008

>  <SCORE.RESTR>
0.368363

>  <SCORE.RESTR.CAVITY>
0.368363

>  <SCORE.RESTR.norm>
0.00751761

>  <SCORE.SYSTEM>
0

>  <SCORE.SYSTEM.CONST>
0

>  <SCORE.SYSTEM.DIHEDRAL>
0

>  <SCORE.SYSTEM.SOLV>
0

>  <SCORE.SYSTEM.norm>
0

>  <SCORE.heavy>
49

>  <SCORE.norm>
-0.163065

>  <RMSD>
7.784

$$$$
ligand
 OpenBabel11021811513D
libRbt.so/2013.1/901 2013/11/27
 49 52  0  0  0  0  0  0  0  0999 V2000
   28.8581    9.6480    9.1531 C   0  0  2  0  0  0  0  0  0  0  0  0
   28.5551    9.0350    7.9347 O   0  0  0  0  0  0  0  0  0  0  0  0
   27.6229    9.5415   10.1226 C   0  0  2  0  0  0  0  0  0  0  0  0
   27.2827    8.0750   10.3374 N   0  0  0  0  0  0  0  0  0  0  0  0
   31.3334    7.6674    3.0634 O   0  0  0  0  0  0  0  0  0  0  0  0
   26.4179   10.3219    9.5476 C   0  0  2  0  0  0  0  0  0  0  0  0
   34.1296    9.9881    0.2953 N   0  0  0  0  0  0  0  0  0  0  0  0
   26.7916   11.7952    9.3209 C   0  0  2  0  0  0  0  0  0  0  0  0
   28.0369   11.9429    8.3477 C   0  0  2  0  0  0  0  0  0  0  0  0
   29.1841   11.1135    8.9278 O   0  0  0  0  0  0  0  0  0  0  0  0
   28.4442   13.4339    8.1669 C   0  0  0  0  0  0  0  0  0  0  0  0
   29.6604   13.6142    7.4581 N   0  0  0  0  0  0  0  0  0  0  0  0
   32.1390    9.0525    5.4939 C   0  0  2  0  0  0  0  0  0  0  0  0
   33.0954    8.6738    4.4126 N   0  0  0  0  0  0  0  0  0  0  0  0
   31.6058    7.6872    6.1482 C   0  0  0  0  0  0  0  0  0  0  0  0
   30.6034    7.9962    7.3221 C   0  0  2  0  0  0  0  0  0  0  0  0
   30.0920    6.7525    7.9168 N   0  0  0  0  0  0  0  0  0  0  0  0
   29.4032    8.8103    6.7989 C   0  0  2  0  0  0  0  0  0  0  0  0
   29.8953   10.1631    6.1426 C   0  0  2  0  0  0  0  0  0  0  0  0
   28.6810   10.8664    5.6841 O   0  0  0  0  0  0  0  0  0  0  0  0
   30.8678    9.8176    4.9031 C   0  0  1  0  0  0  0  0  0  0  0  0
   31.2832   11.0193    4.3348 O   0  0  0  0  0  0  0  0  0  0  0  0
   27.8174   10.4445    4.8244 C   0  0  1  0  0  0  0  0  0  0  0  0
   26.8869    9.2946    5.3106 C   0  0  2  0  0  0  0  0  0  0  0  0
   27.4902    8.0823    4.9845 O   0  0  0  0  0  0  0  0  0  0  0  0
   25.7260    9.5730    4.4488 C   0  0  1  0  0  0  0  0  0  0  0  0
   25.5516   11.1202    4.3531 C   0  0  2  0  0  0  0  0  0  0  0  0
   26.9125   11.4725    4.3049 O   0  0  0  0  0  0  0  0  0  0  0  0
   24.6740   11.8148    5.3954 C   0  0  0  0  0  0  0  0  0  0  0  0
   25.3798   11.7416    6.6198 O   0  0  0  0  0  0  0  0  0  0  0  0
   25.2372    9.2876    2.0607 C   0  0  2  0  0  0  0  0  0  0  0  0
   26.0207    8.9394    3.1230 O   0  0  0  0  0  0  0  0  0  0  0  0
   25.1815    8.2062    1.0222 C   0  0  1  0  0  0  0  0  0  0  0  0
   24.6070   12.9303   -1.6363 N   0  0  0  0  0  0  0  0  0  0  0  0
   34.1762    6.3096    2.3446 O   0  0  0  0  0  0  0  0  0  0  0  0
   24.3041    8.6946   -0.1951 C   0  0  2  0  0  0  0  0  0  0  0  0
   24.8134   10.0286   -0.8429 C   0  0  1  0  0  0  0  0  0  0  0  0
   24.8490   11.0551    0.1722 C   0  0  1  0  0  0  0  0  0  0  0  0
   25.6871   10.6095    1.3555 O   0  0  0  0  0  0  0  0  0  0  0  0
   25.4032   12.4192   -0.4322 C   0  0  0  0  0  0  0  0  0  0  0  0
   26.4778    7.9295    0.5434 N   0  0  0  0  0  0  0  0  0  0  0  0
   25.5486   10.2637   10.2874 O   0  0  0  0  0  0  0  0  0  0  0  0
   33.1092    7.7404    0.9395 C   0  0  0  0  0  0  0  0  0  0  0  0
   25.8784    9.8565   -1.2350 O   0  0  0  0  0  0  0  0  0  0  0  0
   23.2395    8.8988    0.1899 O   0  0  0  0  0  0  0  0  0  0  0  0
   32.5271    7.9596    3.2228 C   0  0  0  0  0  0  0  0  0  0  0  0
   33.0875    9.0742    0.5981 C   0  0  0  0  0  0  0  0  0  0  0  0
   33.6794    7.6303    2.1387 C   0  0  1  0  0  0  0  0  0  0  0  0
   27.1198   12.4003   10.5470 F   0  0  0  0  0  0  0  0  0  0  0  0
  1  2  1  6  0  0  0
  1 10  1  0  0  0  0
  1  3  1  0  0  0  0
  3  4  1  6  0  0  0
  3  6  1  0  0  0  0
  5 46  2  0  0  0  0
  6 42  1  1  0  0  0
  6  8  1  0  0  0  0
  7 47  1  0  0  0  0
  8  9  1  0  0  0  0
  8 49  1  1  0  0  0
  9 10  1  0  0  0  0
  9 11  1  1  0  0  0
 11 12  1  0  0  0  0
 13 14  1  6  0  0  0
 13 15  1  0  0  0  0
 13 21  1  0  0  0  0
 14 46  1  0  0  0  0
 15 16  1  0  0  0  0
 16 17  1  6  0  0  0
 16 18  1  0  0  0  0
 18  2  1  1  0  0  0
 18 19  1  0  0  0  0
 19 20  1  6  0  0  0
 19 21  1  0  0  0  0
 21 22  1  1  0  0  0
 23 20  1  1  0  0  0
 23 24  1  0  0  0  0
 23 28  1  0  0  0  0
 24 25  1  6  0  0  0
 24 26  1  0  0  0  0
 26 27  1  0  0  0  0
 26 32  1  6  0  0  0
 27 28  1  0  0  0  0
 27 29  1  1  0  0  0
 29 30  1  0  0  0  0
 31 32  1  1  0  0  0
 31 33  1  0  0  0  0
 31 39  1  0  0  0  0
 33 36  1  0  0  0  0
 33 41  1  6  0  0  0
 34 40  1  0  0  0  0
 35 48  1  0  0  0  0
 36 37  1  0  0  0  0
 36 45  1  1  0  0  0
 37 38  1  0  0  0  0
 37 44  1  1  0  0  0
 38 39  1  0  0  0  0
 38 40  1  6  0  0  0
 43 47  1  0  0  0  0
 46 48  1  0  0  0  0
 48 43  1  6  0  0  0
M  END
>  <CHROM.1>
-175.15116460,57.04894268,171.75855156,66.49704472,-60.25287199,72.33422647
-166.37511320,69.77462782,-153.64158648,56.73388359,67.18728548,-158.74981384
-86.18339465,28.24942291,9.83430122,4.64486680,-1.38736404,0.31825061,-1.70619172

>  <Name>
ligand

>  <RI>
0

>  <Rbt.Current_Directory>
/home/itssahil/PROJECTS/Mol_Feturizer/New_Systems/rnas/4PDQ

>  <Rbt.Executable>
rbdock ($Id: //depot/dev/client3/rdock/2013.1/src/exe/rbdock.cxx#4 $)

>  <Rbt.Library>
libRbt.so (2013.1, Build901 2013/11/27)

>  <Rbt.Parameter_File>
/export/apps/rDock/src/rDock_2013.1_src/data/scripts/dock_solv.prm

>  <Rbt.Receptor>
prm/pocket_docking_4.prm

>  <SCORE>
-15.2204

>  <SCORE.INTER>
-4.82935

>  <SCORE.INTER.CONST>
1

>  <SCORE.INTER.POLAR>
0

>  <SCORE.INTER.ROT>
13

>  <SCORE.INTER.SOLV>
19.0227

>  <SCORE.INTER.VDW>
-21.8271

>  <SCORE.INTER.norm>
-0.0985581

>  <SCORE.INTRA>
-10.4731

>  <SCORE.INTRA.DIHEDRAL>
-25.6895

>  <SCORE.INTRA.DIHEDRAL.0>
34.5115

>  <SCORE.INTRA.POLAR>
0

>  <SCORE.INTRA.POLAR.0>
0

>  <SCORE.INTRA.REPUL>
0.0116857

>  <SCORE.INTRA.REPUL.0>
0

>  <SCORE.INTRA.SOLV>
1.19227

>  <SCORE.INTRA.SOLV.lig_0>
-122.812

>  <SCORE.INTRA.VDW>
1.71703

>  <SCORE.INTRA.VDW.0>
-7.46208

>  <SCORE.INTRA.norm>
-0.213738

>  <SCORE.RESTR>
0.082103

>  <SCORE.RESTR.CAVITY>
0.082103

>  <SCORE.RESTR.norm>
0.00167557

>  <SCORE.SYSTEM>
0

>  <SCORE.SYSTEM.CONST>
0

>  <SCORE.SYSTEM.DIHEDRAL>
0

>  <SCORE.SYSTEM.SOLV>
0

>  <SCORE.SYSTEM.norm>
0

>  <SCORE.heavy>
49

>  <SCORE.norm>
-0.31062

>  <RMSD>
7.798

$$$$
ligand
 OpenBabel11021811513D
libRbt.so/2013.1/901 2013/11/27
 49 52  0  0  0  0  0  0  0  0999 V2000
   27.3020    9.8155    7.4176 C   0  0  2  0  0  0  0  0  0  0  0  0
   28.5711   10.3842    7.2837 O   0  0  0  0  0  0  0  0  0  0  0  0
   26.5662   10.4454    8.6582 C   0  0  2  0  0  0  0  0  0  0  0  0
   26.4550   11.9491    8.4611 N   0  0  0  0  0  0  0  0  0  0  0  0
   31.9616   11.4654    1.4398 O   0  0  0  0  0  0  0  0  0  0  0  0
   27.3207   10.1016    9.9637 C   0  0  2  0  0  0  0  0  0  0  0  0
   36.7051    9.0234    0.3345 N   0  0  0  0  0  0  0  0  0  0  0  0
   27.4378    8.5784   10.1305 C   0  0  2  0  0  0  0  0  0  0  0  0
   28.1742    7.9064    8.8954 C   0  0  2  0  0  0  0  0  0  0  0  0
   27.4261    8.3168    7.6257 O   0  0  0  0  0  0  0  0  0  0  0  0
   28.2396    6.3588    9.0451 C   0  0  0  0  0  0  0  0  0  0  0  0
   26.9739    5.7214    8.9696 N   0  0  0  0  0  0  0  0  0  0  0  0
   31.6418   10.7537    4.2444 C   0  0  2  0  0  0  0  0  0  0  0  0
   32.8744   10.4519    3.4591 N   0  0  0  0  0  0  0  0  0  0  0  0
   32.0393   10.6594    5.7967 C   0  0  0  0  0  0  0  0  0  0  0  0
   30.7951   10.9898    6.7028 C   0  0  2  0  0  0  0  0  0  0  0  0
   31.1415   10.8869    8.1280 N   0  0  0  0  0  0  0  0  0  0  0  0
   29.6463   10.0033    6.4127 C   0  0  2  0  0  0  0  0  0  0  0  0
   29.2323   10.0682    4.8872 C   0  0  2  0  0  0  0  0  0  0  0  0
   28.1303    9.1010    4.7158 O   0  0  0  0  0  0  0  0  0  0  0  0
   30.5053    9.6623    3.9838 C   0  0  1  0  0  0  0  0  0  0  0  0
   30.1189    9.7178    2.6469 O   0  0  0  0  0  0  0  0  0  0  0  0
   27.1287    9.2001    3.9096 C   0  0  1  0  0  0  0  0  0  0  0  0
   26.1814    7.9655    3.8546 C   0  0  2  0  0  0  0  0  0  0  0  0
   26.6360    7.1155    2.8493 O   0  0  0  0  0  0  0  0  0  0  0  0
   24.9424    8.6574    3.4621 C   0  0  1  0  0  0  0  0  0  0  0  0
   24.8824   10.0169    4.2248 C   0  0  2  0  0  0  0  0  0  0  0  0
   26.2487   10.3443    4.1583 O   0  0  0  0  0  0  0  0  0  0  0  0
   24.2103   10.0463    5.5982 C   0  0  0  0  0  0  0  0  0  0  0  0
   24.3496   11.3699    6.0792 O   0  0  0  0  0  0  0  0  0  0  0  0
   25.5931    9.9609    1.4871 C   0  0  2  0  0  0  0  0  0  0  0  0
   25.0058    8.8292    1.9746 O   0  0  0  0  0  0  0  0  0  0  0  0
   24.7717   10.6030    0.4082 C   0  0  1  0  0  0  0  0  0  0  0  0
   29.9785   11.7631   -0.7163 N   0  0  0  0  0  0  0  0  0  0  0  0
   35.3724   11.0410    2.0585 O   0  0  0  0  0  0  0  0  0  0  0  0
   25.5315   11.8715   -0.1430 C   0  0  2  0  0  0  0  0  0  0  0  0
   26.9694   11.5581   -0.6843 C   0  0  1  0  0  0  0  0  0  0  0  0
   27.7428   10.9507    0.3733 C   0  0  1  0  0  0  0  0  0  0  0  0
   27.0328    9.7273    0.9214 O   0  0  0  0  0  0  0  0  0  0  0  0
   29.1996   10.5746   -0.1456 C   0  0  0  0  0  0  0  0  0  0  0  0
   24.5910    9.7029   -0.6612 N   0  0  0  0  0  0  0  0  0  0  0  0
   26.7459   10.5345   10.8516 O   0  0  0  0  0  0  0  0  0  0  0  0
   34.3455    9.1645    1.2940 C   0  0  0  0  0  0  0  0  0  0  0  0
   26.8745   10.8117   -1.5511 O   0  0  0  0  0  0  0  0  0  0  0  0
   25.6592   12.6170    0.7237 O   0  0  0  0  0  0  0  0  0  0  0  0
   32.8853   10.8789    2.0217 C   0  0  0  0  0  0  0  0  0  0  0  0
   35.3059    8.7932    0.3798 C   0  0  0  0  0  0  0  0  0  0  0  0
   34.2861   10.4955    1.3129 C   0  0  1  0  0  0  0  0  0  0  0  0
   26.1568    8.0087   10.2396 F   0  0  0  0  0  0  0  0  0  0  0  0
  1  2  1  1  0  0  0
  1 10  1  0  0  0  0
  1  3  1  0  0  0  0
  3  4  1  6  0  0  0
  3  6  1  0  0  0  0
  5 46  2  0  0  0  0
  6 42  1  1  0  0  0
  6  8  1  0  0  0  0
  7 47  1  0  0  0  0
  8  9  1  0  0  0  0
  8 49  1  6  0  0  0
  9 10  1  0  0  0  0
  9 11  1  1  0  0  0
 11 12  1  0  0  0  0
 13 14  1  6  0  0  0
 13 15  1  0  0  0  0
 13 21  1  0  0  0  0
 14 46  1  0  0  0  0
 15 16  1  0  0  0  0
 16 17  1  1  0  0  0
 16 18  1  0  0  0  0
 18  2  1  1  0  0  0
 18 19  1  0  0  0  0
 19 20  1  1  0  0  0
 19 21  1  0  0  0  0
 21 22  1  6  0  0  0
 23 20  1  1  0  0  0
 23 24  1  0  0  0  0
 23 28  1  0  0  0  0
 24 25  1  6  0  0  0
 24 26  1  0  0  0  0
 26 27  1  0  0  0  0
 26 32  1  6  0  0  0
 27 28  1  0  0  0  0
 27 29  1  1  0  0  0
 29 30  1  0  0  0  0
 31 32  1  6  0  0  0
 31 33  1  0  0  0  0
 31 39  1  0  0  0  0
 33 36  1  0  0  0  0
 33 41  1  6  0  0  0
 34 40  1  0  0  0  0
 35 48  1  0  0  0  0
 36 37  1  0  0  0  0
 36 45  1  1  0  0  0
 37 38  1  0  0  0  0
 37 44  1  6  0  0  0
 38 39  1  0  0  0  0
 38 40  1  6  0  0  0
 43 47  1  0  0  0  0
 46 48  1  0  0  0  0
 48 43  1  1  0  0  0
M  END
>  <CHROM.1>
171.25143931,179.91874506,67.19023425,-161.70135614,146.67896140,174.90313120
-89.35844075,177.46382342,-133.49419132,56.84519448,62.85949748,-77.57455569
124.53105175,28.49244008,9.88645825,4.17498375,-2.10298043,-0.00206141,-1.40762578

>  <Name>
ligand

>  <RI>
0

>  <Rbt.Current_Directory>
/home/itssahil/PROJECTS/Mol_Feturizer/New_Systems/rnas/4PDQ

>  <Rbt.Executable>
rbdock ($Id: //depot/dev/client3/rdock/2013.1/src/exe/rbdock.cxx#4 $)

>  <Rbt.Library>
libRbt.so (2013.1, Build901 2013/11/27)

>  <Rbt.Parameter_File>
/export/apps/rDock/src/rDock_2013.1_src/data/scripts/dock_solv.prm

>  <Rbt.Receptor>
prm/pocket_docking_4.prm

>  <SCORE>
-7.31004

>  <SCORE.INTER>
-0.664822

>  <SCORE.INTER.CONST>
1

>  <SCORE.INTER.POLAR>
0

>  <SCORE.INTER.ROT>
13

>  <SCORE.INTER.SOLV>
18.3309

>  <SCORE.INTER.VDW>
-18.8202

>  <SCORE.INTER.norm>
-0.0135678

>  <SCORE.INTRA>
-6.64522

>  <SCORE.INTRA.DIHEDRAL>
-17.5583

>  <SCORE.INTRA.DIHEDRAL.0>
34.5115

>  <SCORE.INTRA.POLAR>
0

>  <SCORE.INTRA.POLAR.0>
0

>  <SCORE.INTRA.REPUL>
0

>  <SCORE.INTRA.REPUL.0>
0

>  <SCORE.INTRA.SOLV>
2.85116

>  <SCORE.INTRA.SOLV.lig_0>
-122.812

>  <SCORE.INTRA.VDW>
0.70834

>  <SCORE.INTRA.VDW.0>
-7.46208

>  <SCORE.INTRA.norm>
-0.135617

>  <SCORE.RESTR>
0

>  <SCORE.RESTR.CAVITY>
0

>  <SCORE.RESTR.norm>
0

>  <SCORE.SYSTEM>
0

>  <SCORE.SYSTEM.CONST>
0

>  <SCORE.SYSTEM.DIHEDRAL>
0

>  <SCORE.SYSTEM.SOLV>
0

>  <SCORE.SYSTEM.norm>
0

>  <SCORE.heavy>
49

>  <SCORE.norm>
-0.149185

>  <RMSD>
7.817

$$$$
ligand
 OpenBabel11021811513D
libRbt.so/2013.1/901 2013/11/27
 49 52  0  0  0  0  0  0  0  0999 V2000
   27.8028   13.8802    6.4691 C   0  0  2  0  0  0  0  0  0  0  0  0
   27.9804   12.4948    6.5035 O   0  0  0  0  0  0  0  0  0  0  0  0
   28.5725   14.5442    7.6707 C   0  0  2  0  0  0  0  0  0  0  0  0
   30.0494   14.1966    7.5695 N   0  0  0  0  0  0  0  0  0  0  0  0
   25.0506   11.3664    0.6311 O   0  0  0  0  0  0  0  0  0  0  0  0
   27.9738   14.0769    9.0180 C   0  0  2  0  0  0  0  0  0  0  0  0
   26.6938    6.4719    0.6240 N   0  0  0  0  0  0  0  0  0  0  0  0
   26.4778   14.4210    9.0884 C   0  0  2  0  0  0  0  0  0  0  0  0
   25.6673   13.7692    7.8893 C   0  0  2  0  0  0  0  0  0  0  0  0
   26.3265   14.2154    6.5829 O   0  0  0  0  0  0  0  0  0  0  0  0
   24.1636   14.1673    7.9358 C   0  0  0  0  0  0  0  0  0  0  0  0
   23.9286   15.5477    7.7050 N   0  0  0  0  0  0  0  0  0  0  0  0
   25.4569   10.7400    3.4449 C   0  0  2  0  0  0  0  0  0  0  0  0
   24.9488    9.7493    2.4512 N   0  0  0  0  0  0  0  0  0  0  0  0
   27.0430   10.8529    3.2262 C   0  0  0  0  0  0  0  0  0  0  0  0
   27.6611   11.9022    4.2238 C   0  0  2  0  0  0  0  0  0  0  0  0
   29.1175   11.9999    4.0470 N   0  0  0  0  0  0  0  0  0  0  0  0
   27.3786   11.4845    5.6808 C   0  0  2  0  0  0  0  0  0  0  0  0
   25.8212   11.3598    5.9292 C   0  0  2  0  0  0  0  0  0  0  0  0
   25.6577   10.9664    7.3427 O   0  0  0  0  0  0  0  0  0  0  0  0
   25.2244   10.2331    4.9414 C   0  0  1  0  0  0  0  0  0  0  0  0
   23.8560   10.1329    5.1806 O   0  0  0  0  0  0  0  0  0  0  0  0
   26.1488    9.9232    7.9200 C   0  0  1  0  0  0  0  0  0  0  0  0
   25.7361    8.5537    7.3046 C   0  0  2  0  0  0  0  0  0  0  0  0
   24.5870    8.1144    7.9576 O   0  0  0  0  0  0  0  0  0  0  0  0
   26.9187    7.7706    7.6998 C   0  0  1  0  0  0  0  0  0  0  0  0
   28.1778    8.6776    7.5401 C   0  0  2  0  0  0  0  0  0  0  0  0
   27.6117    9.8862    7.9844 O   0  0  0  0  0  0  0  0  0  0  0  0
   28.8981    8.6835    6.1910 C   0  0  0  0  0  0  0  0  0  0  0  0
   29.3525    7.3602    5.9786 O   0  0  0  0  0  0  0  0  0  0  0  0
   27.6950    6.6738    9.7535 C   0  0  2  0  0  0  0  0  0  0  0  0
   26.6888    7.3419    9.1174 O   0  0  0  0  0  0  0  0  0  0  0  0
   27.9987    5.3572    9.1013 C   0  0  1  0  0  0  0  0  0  0  0  0
   27.7316    6.8023   14.2670 N   0  0  0  0  0  0  0  0  0  0  0  0
   23.5093    9.5928   -1.0051 O   0  0  0  0  0  0  0  0  0  0  0  0
   29.1312    4.6190    9.9152 C   0  0  2  0  0  0  0  0  0  0  0  0
   28.7763    4.3949   11.4261 C   0  0  1  0  0  0  0  0  0  0  0  0
   28.4980    5.6751   12.0337 C   0  0  1  0  0  0  0  0  0  0  0  0
   27.4112    6.4063   11.2685 O   0  0  0  0  0  0  0  0  0  0  0  0
   28.0891    5.4914   13.5608 C   0  0  0  0  0  0  0  0  0  0  0  0
   26.8512    4.5389    9.1083 N   0  0  0  0  0  0  0  0  0  0  0  0
   28.5217   14.6030    9.8719 O   0  0  0  0  0  0  0  0  0  0  0  0
   25.3207    8.3869   -0.3535 C   0  0  0  0  0  0  0  0  0  0  0  0
   27.8329    3.7435   11.4830 O   0  0  0  0  0  0  0  0  0  0  0  0
   30.0756    5.2753    9.8909 O   0  0  0  0  0  0  0  0  0  0  0  0
   24.7889   10.2256    1.0382 C   0  0  0  0  0  0  0  0  0  0  0  0
   25.6473    7.4287    0.5799 C   0  0  0  0  0  0  0  0  0  0  0  0
   24.2450    9.0401    0.0842 C   0  0  1  0  0  0  0  0  0  0  0  0
   26.3036   15.8150    9.0282 F   0  0  0  0  0  0  0  0  0  0  0  0
  1  2  1  1  0  0  0
  1 10  1  0  0  0  0
  1  3  1  0  0  0  0
  3  4  1  1  0  0  0
  3  6  1  0  0  0  0
  5 46  2  0  0  0  0
  6 42  1  1  0  0  0
  6  8  1  0  0  0  0
  7 47  1  0  0  0  0
  8  9  1  0  0  0  0
  8 49  1  6  0  0  0
  9 10  1  0  0  0  0
  9 11  1  6  0  0  0
 11 12  1  0  0  0  0
 13 14  1  6  0  0  0
 13 15  1  0  0  0  0
 13 21  1  0  0  0  0
 14 46  1  0  0  0  0
 15 16  1  0  0  0  0
 16 17  1  1  0  0  0
 16 18  1  0  0  0  0
 18  2  1  1  0  0  0
 18 19  1  0  0  0  0
 19 20  1  1  0  0  0
 19 21  1  0  0  0  0
 21 22  1  1  0  0  0
 23 20  1  6  0  0  0
 23 24  1  0  0  0  0
 23 28  1  0  0  0  0
 24 25  1  1  0  0  0
 24 26  1  0  0  0  0
 26 27  1  0  0  0  0
 26 32  1  1  0  0  0
 27 28  1  0  0  0  0
 27 29  1  6  0  0  0
 29 30  1  0  0  0  0
 31 32  1  6  0  0  0
 31 33  1  0  0  0  0
 31 39  1  0  0  0  0
 33 36  1  0  0  0  0
 33 41  1  1  0  0  0
 34 40  1  0  0  0  0
 35 48  1  0  0  0  0
 36 37  1  0  0  0  0
 36 45  1  1  0  0  0
 37 38  1  0  0  0  0
 37 44  1  6  0  0  0
 38 39  1  0  0  0  0
 38 40  1  1  0  0  0
 43 47  1  0  0  0  0
 46 48  1  0  0  0  0
 48 43  1  6  0  0  0
M  END
>  <CHROM.1>
174.27250656,53.73611036,66.48117320,-77.96560828,-57.69345588,-58.51301414
-175.44283975,-61.66599667,-63.36912426,-178.06902499,-179.51708928,-154.15733295
-28.79754861,26.83660748,9.79884853,6.82062018,-2.83451021,1.30042234,-2.88550169

>  <Name>
ligand

>  <RI>
0

>  <Rbt.Current_Directory>
/home/itssahil/PROJECTS/Mol_Feturizer/New_Systems/rnas/4PDQ

>  <Rbt.Executable>
rbdock ($Id: //depot/dev/client3/rdock/2013.1/src/exe/rbdock.cxx#4 $)

>  <Rbt.Library>
libRbt.so (2013.1, Build901 2013/11/27)

>  <Rbt.Parameter_File>
/export/apps/rDock/src/rDock_2013.1_src/data/scripts/dock_solv.prm

>  <Rbt.Receptor>
prm/pocket_docking_7.prm

>  <SCORE>
-18.8353

>  <SCORE.INTER>
-5.07578

>  <SCORE.INTER.CONST>
1

>  <SCORE.INTER.POLAR>
0

>  <SCORE.INTER.ROT>
13

>  <SCORE.INTER.SOLV>
18.3802

>  <SCORE.INTER.VDW>
-21.7772

>  <SCORE.INTER.norm>
-0.103587

>  <SCORE.INTRA>
-13.7595

>  <SCORE.INTRA.DIHEDRAL>
-29.8795

>  <SCORE.INTRA.DIHEDRAL.0>
34.5115

>  <SCORE.INTRA.POLAR>
0

>  <SCORE.INTRA.POLAR.0>
0

>  <SCORE.INTRA.REPUL>
0.00957276

>  <SCORE.INTRA.REPUL.0>
0

>  <SCORE.INTRA.SOLV>
-1.25912

>  <SCORE.INTRA.SOLV.lig_0>
-122.812

>  <SCORE.INTRA.VDW>
1.76194

>  <SCORE.INTRA.VDW.0>
-7.46208

>  <SCORE.INTRA.norm>
-0.280806

>  <SCORE.RESTR>
0

>  <SCORE.RESTR.CAVITY>
0

>  <SCORE.RESTR.norm>
0

>  <SCORE.SYSTEM>
0

>  <SCORE.SYSTEM.CONST>
0

>  <SCORE.SYSTEM.DIHEDRAL>
0

>  <SCORE.SYSTEM.SOLV>
0

>  <SCORE.SYSTEM.norm>
0

>  <SCORE.heavy>
49

>  <SCORE.norm>
-0.384393

>  <RMSD>
7.825

$$$$
ligand
 OpenBabel11021811513D
libRbt.so/2013.1/901 2013/11/27
 49 52  0  0  0  0  0  0  0  0999 V2000
   27.3332    4.4758    7.3182 C   0  0  2  0  0  0  0  0  0  0  0  0
   27.3159    5.8267    6.9622 O   0  0  0  0  0  0  0  0  0  0  0  0
   25.9499    4.0767    7.9542 C   0  0  2  0  0  0  0  0  0  0  0  0
   24.8424    4.3453    6.9474 N   0  0  0  0  0  0  0  0  0  0  0  0
   33.3324    5.4683    3.8117 O   0  0  0  0  0  0  0  0  0  0  0  0
   25.7173    4.8554    9.2701 C   0  0  2  0  0  0  0  0  0  0  0  0
   32.0275    9.6732    1.0003 N   0  0  0  0  0  0  0  0  0  0  0  0
   26.8583    4.5838   10.2630 C   0  0  2  0  0  0  0  0  0  0  0  0
   28.2721    4.9730    9.6551 C   0  0  2  0  0  0  0  0  0  0  0  0
   28.4343    4.2221    8.3321 O   0  0  0  0  0  0  0  0  0  0  0  0
   29.4272    4.6436   10.6445 C   0  0  0  0  0  0  0  0  0  0  0  0
   29.2892    5.2632   11.9137 N   0  0  0  0  0  0  0  0  0  0  0  0
   31.1643    6.8061    5.2203 C   0  0  2  0  0  0  0  0  0  0  0  0
   32.1905    7.5339    4.4178 N   0  0  0  0  0  0  0  0  0  0  0  0
   29.8654    6.6496    4.2904 C   0  0  0  0  0  0  0  0  0  0  0  0
   28.7343    5.8660    5.0551 C   0  0  2  0  0  0  0  0  0  0  0  0
   27.5311    5.7336    4.2204 N   0  0  0  0  0  0  0  0  0  0  0  0
   28.3462    6.6136    6.3464 C   0  0  2  0  0  0  0  0  0  0  0  0
   29.6074    6.7887    7.2854 C   0  0  2  0  0  0  0  0  0  0  0  0
   29.1327    7.5028    8.4871 O   0  0  0  0  0  0  0  0  0  0  0  0
   30.7243    7.6499    6.5029 C   0  0  1  0  0  0  0  0  0  0  0  0
   31.8214    7.7995    7.3477 O   0  0  0  0  0  0  0  0  0  0  0  0
   28.3719    8.5434    8.5219 C   0  0  1  0  0  0  0  0  0  0  0  0
   28.2798    9.2669    9.8977 C   0  0  2  0  0  0  0  0  0  0  0  0
   27.2098    8.7213   10.6029 O   0  0  0  0  0  0  0  0  0  0  0  0
   27.9754   10.6231    9.4120 C   0  0  1  0  0  0  0  0  0  0  0  0
   28.8185   10.8790    8.1247 C   0  0  2  0  0  0  0  0  0  0  0  0
   28.7203    9.5936    7.5621 O   0  0  0  0  0  0  0  0  0  0  0  0
   30.2156   11.4808    8.2832 C   0  0  0  0  0  0  0  0  0  0  0  0
   30.0252   12.8208    8.6963 O   0  0  0  0  0  0  0  0  0  0  0  0
   25.9055   11.8817    9.0184 C   0  0  2  0  0  0  0  0  0  0  0  0
   26.4993   10.6601    9.1553 O   0  0  0  0  0  0  0  0  0  0  0  0
   24.4335   11.7667    8.7516 C   0  0  1  0  0  0  0  0  0  0  0  0
   28.1675   15.1132    6.7722 N   0  0  0  0  0  0  0  0  0  0  0  0
   35.5050    6.9389    2.7227 O   0  0  0  0  0  0  0  0  0  0  0  0
   23.8235   13.2086    8.5538 C   0  0  2  0  0  0  0  0  0  0  0  0
   24.5094   14.0305    7.4080 C   0  0  1  0  0  0  0  0  0  0  0  0
   25.9214   14.1357    7.6917 C   0  0  1  0  0  0  0  0  0  0  0  0
   26.5326   12.7611    7.8867 O   0  0  0  0  0  0  0  0  0  0  0  0
   26.6671   14.9268    6.5292 C   0  0  0  0  0  0  0  0  0  0  0  0
   24.2131   11.0329    7.5687 N   0  0  0  0  0  0  0  0  0  0  0  0
   24.7278    4.5188    9.7325 O   0  0  0  0  0  0  0  0  0  0  0  0
   33.6825    7.8813    1.7478 C   0  0  0  0  0  0  0  0  0  0  0  0
   24.3699   13.4608    6.4213 O   0  0  0  0  0  0  0  0  0  0  0  0
   23.9823   13.8012    9.5269 O   0  0  0  0  0  0  0  0  0  0  0  0
   33.2479    6.7033    3.7538 C   0  0  0  0  0  0  0  0  0  0  0  0
   32.8776    8.9873    1.9057 C   0  0  0  0  0  0  0  0  0  0  0  0
   34.2727    7.6300    2.9156 C   0  0  1  0  0  0  0  0  0  0  0  0
   26.8866    3.2185   10.5984 F   0  0  0  0  0  0  0  0  0  0  0  0
  1  2  1  1  0  0  0
  1 10  1  0  0  0  0
  1  3  1  0  0  0  0
  3  4  1  6  0  0  0
  3  6  1  0  0  0  0
  5 46  2  0  0  0  0
  6 42  1  1  0  0  0
  6  8  1  0  0  0  0
  7 47  1  0  0  0  0
  8  9  1  0  0  0  0
  8 49  1  6  0  0  0
  9 10  1  0  0  0  0
  9 11  1  1  0  0  0
 11 12  1  0  0  0  0
 13 14  1  6  0  0  0
 13 15  1  0  0  0  0
 13 21  1  0  0  0  0
 14 46  1  0  0  0  0
 15 16  1  0  0  0  0
 16 17  1  6  0  0  0
 16 18  1  0  0  0  0
 18  2  1  1  0  0  0
 18 19  1  0  0  0  0
 19 20  1  1  0  0  0
 19 21  1  0  0  0  0
 21 22  1  1  0  0  0
 23 20  1  1  0  0  0
 23 24  1  0  0  0  0
 23 28  1  0  0  0  0
 24 25  1  1  0  0  0
 24 26  1  0  0  0  0
 26 27  1  0  0  0  0
 26 32  1  6  0  0  0
 27 28  1  0  0  0  0
 27 29  1  1  0  0  0
 29 30  1  0  0  0  0
 31 32  1  6  0  0  0
 31 33  1  0  0  0  0
 31 39  1  0  0  0  0
 33 36  1  0  0  0  0
 33 41  1  6  0  0  0
 34 40  1  0  0  0  0
 35 48  1  0  0  0  0
 36 37  1  0  0  0  0
 36 45  1  1  0  0  0
 37 38  1  0  0  0  0
 37 44  1  6  0  0  0
 38 39  1  0  0  0  0
 38 40  1  6  0  0  0
 43 47  1  0  0  0  0
 46 48  1  0  0  0  0
 48 43  1  6  0  0  0
M  END
>  <CHROM.1>
-179.50335196,54.68843067,-56.50292568,-98.60631758,-45.85861809,-167.30377473
164.00786623,-69.90450479,179.38592987,178.52460402,-179.52372317,-154.15699495
-22.59727118,28.43741141,8.47261966,7.24064924,0.52994687,-0.69914856,2.89159690

>  <Name>
ligand

>  <RI>
0

>  <Rbt.Current_Directory>
/home/itssahil/PROJECTS/Mol_Feturizer/New_Systems/rnas/4PDQ

>  <Rbt.Executable>
rbdock ($Id: //depot/dev/client3/rdock/2013.1/src/exe/rbdock.cxx#4 $)

>  <Rbt.Library>
libRbt.so (2013.1, Build901 2013/11/27)

>  <Rbt.Parameter_File>
/export/apps/rDock/src/rDock_2013.1_src/data/scripts/dock_solv.prm

>  <Rbt.Receptor>
prm/pocket_docking_6.prm

>  <SCORE>
-13.5044

>  <SCORE.INTER>
-0.112939

>  <SCORE.INTER.CONST>
1

>  <SCORE.INTER.POLAR>
0

>  <SCORE.INTER.ROT>
13

>  <SCORE.INTER.SOLV>
17.2648

>  <SCORE.INTER.VDW>
-18.0969

>  <SCORE.INTER.norm>
-0.00230487

>  <SCORE.INTRA>
-13.3914

>  <SCORE.INTRA.DIHEDRAL>
-26.8142

>  <SCORE.INTRA.DIHEDRAL.0>
34.5115

>  <SCORE.INTRA.POLAR>
0

>  <SCORE.INTRA.POLAR.0>
0

>  <SCORE.INTRA.REPUL>
0.00331297

>  <SCORE.INTRA.REPUL.0>
0

>  <SCORE.INTRA.SOLV>
-2.17557

>  <SCORE.INTRA.SOLV.lig_0>
-122.812

>  <SCORE.INTRA.VDW>
1.08689

>  <SCORE.INTRA.VDW.0>
-7.46208

>  <SCORE.INTRA.norm>
-0.273295

>  <SCORE.RESTR>
0

>  <SCORE.RESTR.CAVITY>
0

>  <SCORE.RESTR.norm>
0

>  <SCORE.SYSTEM>
0

>  <SCORE.SYSTEM.CONST>
0

>  <SCORE.SYSTEM.DIHEDRAL>
0

>  <SCORE.SYSTEM.SOLV>
0

>  <SCORE.SYSTEM.norm>
0

>  <SCORE.heavy>
49

>  <SCORE.norm>
-0.2756

>  <RMSD>
7.827

$$$$
ligand
 OpenBabel11021811513D
libRbt.so/2013.1/901 2013/11/27
 49 52  0  0  0  0  0  0  0  0999 V2000
   27.1042    4.4585    7.3881 C   0  0  2  0  0  0  0  0  0  0  0  0
   27.1033    5.7966    6.9865 O   0  0  0  0  0  0  0  0  0  0  0  0
   25.6436    4.0201    7.7775 C   0  0  2  0  0  0  0  0  0  0  0  0
   24.7289    4.2128    6.5781 N   0  0  0  0  0  0  0  0  0  0  0  0
   32.8926    5.4569    3.6308 O   0  0  0  0  0  0  0  0  0  0  0  0
   25.1474    4.8259    9.0008 C   0  0  2  0  0  0  0  0  0  0  0  0
   34.1221   10.3354    0.7900 N   0  0  0  0  0  0  0  0  0  0  0  0
   26.0977    4.6312   10.1927 C   0  0  2  0  0  0  0  0  0  0  0  0
   27.5835    5.0618    9.8368 C   0  0  2  0  0  0  0  0  0  0  0  0
   28.0108    4.2806    8.5928 O   0  0  0  0  0  0  0  0  0  0  0  0
   28.5503    4.8099   11.0299 C   0  0  0  0  0  0  0  0  0  0  0  0
   29.9000    5.1523   10.7563 N   0  0  0  0  0  0  0  0  0  0  0  0
   31.0560    6.7522    5.4812 C   0  0  2  0  0  0  0  0  0  0  0  0
   32.1361    7.4823    4.7548 N   0  0  0  0  0  0  0  0  0  0  0  0
   29.8071    6.6431    4.4788 C   0  0  0  0  0  0  0  0  0  0  0  0
   28.6235    5.8601    5.1602 C   0  0  2  0  0  0  0  0  0  0  0  0
   27.4653    5.7710    4.2587 N   0  0  0  0  0  0  0  0  0  0  0  0
   28.1782    6.5807    6.4484 C   0  0  2  0  0  0  0  0  0  0  0  0
   29.3893    6.7089    7.4583 C   0  0  2  0  0  0  0  0  0  0  0  0
   28.8619    7.3999    8.6515 O   0  0  0  0  0  0  0  0  0  0  0  0
   30.5610    7.5701    6.7604 C   0  0  1  0  0  0  0  0  0  0  0  0
   31.6129    7.6782    7.6667 O   0  0  0  0  0  0  0  0  0  0  0  0
   28.2433    8.5309    8.6836 C   0  0  1  0  0  0  0  0  0  0  0  0
   26.7764    8.4838    9.2036 C   0  0  2  0  0  0  0  0  0  0  0  0
   25.9352    8.2943    8.1098 O   0  0  0  0  0  0  0  0  0  0  0  0
   26.6855    9.8568    9.7276 C   0  0  1  0  0  0  0  0  0  0  0  0
   28.0470   10.2110   10.4016 C   0  0  2  0  0  0  0  0  0  0  0  0
   28.8978    9.5685    9.4841 O   0  0  0  0  0  0  0  0  0  0  0  0
   28.2257    9.8854   11.8851 C   0  0  0  0  0  0  0  0  0  0  0  0
   27.1643   10.5306   12.5631 O   0  0  0  0  0  0  0  0  0  0  0  0
   26.6415   12.0709    8.6697 C   0  0  2  0  0  0  0  0  0  0  0  0
   26.3717   10.7376    8.5563 O   0  0  0  0  0  0  0  0  0  0  0  0
   25.9221   12.8824    7.6328 C   0  0  1  0  0  0  0  0  0  0  0  0
   30.7471   13.4091    7.3983 N   0  0  0  0  0  0  0  0  0  0  0  0
   35.1259    6.7874    2.5343 O   0  0  0  0  0  0  0  0  0  0  0  0
   26.3184   14.4017    7.7897 C   0  0  2  0  0  0  0  0  0  0  0  0
   27.8616   14.6629    7.6934 C   0  0  1  0  0  0  0  0  0  0  0  0
   28.5303   13.8798    8.7059 C   0  0  1  0  0  0  0  0  0  0  0  0
   28.1652   12.4132    8.5769 O   0  0  0  0  0  0  0  0  0  0  0  0
   30.1066   14.0806    8.6165 C   0  0  0  0  0  0  0  0  0  0  0  0
   26.3022   12.4626    6.3422 N   0  0  0  0  0  0  0  0  0  0  0  0
   24.1030    4.4615    9.2886 O   0  0  0  0  0  0  0  0  0  0  0  0
   33.4686    8.3007    2.1833 C   0  0  0  0  0  0  0  0  0  0  0  0
   28.2224   14.3194    6.6593 O   0  0  0  0  0  0  0  0  0  0  0  0
   25.9880   14.7519    8.8344 O   0  0  0  0  0  0  0  0  0  0  0  0
   33.0044    6.6736    3.8379 C   0  0  0  0  0  0  0  0  0  0  0  0
   34.2998    9.3121    1.7565 C   0  0  0  0  0  0  0  0  0  0  0  0
   34.1129    7.6036    3.1183 C   0  0  1  0  0  0  0  0  0  0  0  0
   26.1137    3.2786   10.5766 F   0  0  0  0  0  0  0  0  0  0  0  0
  1  2  1  1  0  0  0
  1 10  1  0  0  0  0
  1  3  1  0  0  0  0
  3  4  1  6  0  0  0
  3  6  1  0  0  0  0
  5 46  2  0  0  0  0
  6 42  1  1  0  0  0
  6  8  1  0  0  0  0
  7 47  1  0  0  0  0
  8  9  1  0  0  0  0
  8 49  1  6  0  0  0
  9 10  1  0  0  0  0
  9 11  1  1  0  0  0
 11 12  1  0  0  0  0
 13 14  1  6  0  0  0
 13 15  1  0  0  0  0
 13 21  1  0  0  0  0
 14 46  1  0  0  0  0
 15 16  1  0  0  0  0
 16 17  1  6  0  0  0
 16 18  1  0  0  0  0
 18  2  1  1  0  0  0
 18 19  1  0  0  0  0
 19 20  1  1  0  0  0
 19 21  1  0  0  0  0
 21 22  1  1  0  0  0
 23 20  1  1  0  0  0
 23 24  1  0  0  0  0
 23 28  1  0  0  0  0
 24 25  1  6  0  0  0
 24 26  1  0  0  0  0
 26 27  1  0  0  0  0
 26 32  1  6  0  0  0
 27 28  1  0  0  0  0
 27 29  1  1  0  0  0
 29 30  1  0  0  0  0
 31 32  1  6  0  0  0
 31 33  1  0  0  0  0
 31 39  1  0  0  0  0
 33 36  1  0  0  0  0
 33 41  1  6  0  0  0
 34 40  1  0  0  0  0
 35 48  1  0  0  0  0
 36 37  1  0  0  0  0
 36 45  1  1  0  0  0
 37 38  1  0  0  0  0
 37 44  1  6  0  0  0
 38 39  1  0  0  0  0
 38 40  1  6  0  0  0
 43 47  1  0  0  0  0
 46 48  1  0  0  0  0
 48 43  1  6  0  0  0
M  END
>  <CHROM.1>
-174.50687742,59.34703078,178.77896829,-83.23841827,-54.13748686,117.41563220
-159.84868329,-55.71508187,-162.81732091,-71.77707577,-179.93981041,-73.96410703
-15.76914063,28.67499199,8.41573945,7.43669578,2.90382966,0.76579739,0.05158251

>  <Name>
ligand

>  <RI>
0

>  <Rbt.Current_Directory>
/home/itssahil/PROJECTS/Mol_Feturizer/New_Systems/rnas/4PDQ

>  <Rbt.Executable>
rbdock ($Id: //depot/dev/client3/rdock/2013.1/src/exe/rbdock.cxx#4 $)

>  <Rbt.Library>
libRbt.so (2013.1, Build901 2013/11/27)

>  <Rbt.Parameter_File>
/export/apps/rDock/src/rDock_2013.1_src/data/scripts/dock_solv.prm

>  <Rbt.Receptor>
prm/pocket_docking_6.prm

>  <SCORE>
-12.244

>  <SCORE.INTER>
-2.42744

>  <SCORE.INTER.CONST>
1

>  <SCORE.INTER.POLAR>
0

>  <SCORE.INTER.ROT>
13

>  <SCORE.INTER.SOLV>
18.2984

>  <SCORE.INTER.VDW>
-19.9844

>  <SCORE.INTER.norm>
-0.0495396

>  <SCORE.INTRA>
-9.8166

>  <SCORE.INTRA.DIHEDRAL>
-21.138

>  <SCORE.INTRA.DIHEDRAL.0>
34.5115

>  <SCORE.INTRA.POLAR>
0

>  <SCORE.INTRA.POLAR.0>
0

>  <SCORE.INTRA.REPUL>
0

>  <SCORE.INTRA.REPUL.0>
0

>  <SCORE.INTRA.SOLV>
-0.341065

>  <SCORE.INTRA.SOLV.lig_0>
-122.812

>  <SCORE.INTRA.VDW>
0.92293

>  <SCORE.INTRA.VDW.0>
-7.46208

>  <SCORE.INTRA.norm>
-0.200339

>  <SCORE.RESTR>
0

>  <SCORE.RESTR.CAVITY>
0

>  <SCORE.RESTR.norm>
0

>  <SCORE.SYSTEM>
0

>  <SCORE.SYSTEM.CONST>
0

>  <SCORE.SYSTEM.DIHEDRAL>
0

>  <SCORE.SYSTEM.SOLV>
0

>  <SCORE.SYSTEM.norm>
0

>  <SCORE.heavy>
49

>  <SCORE.norm>
-0.249878

>  <RMSD>
7.831

$$$$
ligand
 OpenBabel11021811513D
libRbt.so/2013.1/901 2013/11/27
 49 52  0  0  0  0  0  0  0  0999 V2000
   27.7526    9.7205    7.8075 C   0  0  2  0  0  0  0  0  0  0  0  0
   29.1013    9.3879    7.6572 O   0  0  0  0  0  0  0  0  0  0  0  0
   27.5251   10.3934    9.2119 C   0  0  2  0  0  0  0  0  0  0  0  0
   28.3924   11.6382    9.3146 N   0  0  0  0  0  0  0  0  0  0  0  0
   31.7948    8.8887    2.5751 O   0  0  0  0  0  0  0  0  0  0  0  0
   27.8399    9.3911   10.3469 C   0  0  2  0  0  0  0  0  0  0  0  0
   36.7995   10.1551    0.7365 N   0  0  0  0  0  0  0  0  0  0  0  0
   26.9661    8.1344   10.2105 C   0  0  2  0  0  0  0  0  0  0  0  0
   27.1674    7.4280    8.8033 C   0  0  2  0  0  0  0  0  0  0  0  0
   26.8980    8.4691    7.7153 O   0  0  0  0  0  0  0  0  0  0  0  0
   26.2388    6.1886    8.6507 C   0  0  0  0  0  0  0  0  0  0  0  0
   26.4861    5.1661    9.6033 N   0  0  0  0  0  0  0  0  0  0  0  0
   32.4738   10.2335    5.0661 C   0  0  2  0  0  0  0  0  0  0  0  0
   33.4197   10.1107    3.9184 N   0  0  0  0  0  0  0  0  0  0  0  0
   32.2403    8.7537    5.6424 C   0  0  0  0  0  0  0  0  0  0  0  0
   31.2674    8.7938    6.8793 C   0  0  2  0  0  0  0  0  0  0  0  0
   31.0294    7.4410    7.4041 N   0  0  0  0  0  0  0  0  0  0  0  0
   29.9095    9.3991    6.4712 C   0  0  2  0  0  0  0  0  0  0  0  0
   30.1048   10.8591    5.8939 C   0  0  2  0  0  0  0  0  0  0  0  0
   28.7572   11.3491    5.5427 O   0  0  0  0  0  0  0  0  0  0  0  0
   31.0513   10.7817    4.5902 C   0  0  1  0  0  0  0  0  0  0  0  0
   31.2044   12.0736    4.0930 O   0  0  0  0  0  0  0  0  0  0  0  0
   27.9549   10.8517    4.6643 C   0  0  1  0  0  0  0  0  0  0  0  0
   27.3268    9.4738    5.0268 C   0  0  2  0  0  0  0  0  0  0  0  0
   28.1574    8.4743    4.5257 O   0  0  0  0  0  0  0  0  0  0  0  0
   26.0829    9.5881    4.2474 C   0  0  1  0  0  0  0  0  0  0  0  0
   25.5721   11.0578    4.3599 C   0  0  2  0  0  0  0  0  0  0  0  0
   26.8189   11.7073    4.3133 O   0  0  0  0  0  0  0  0  0  0  0  0
   24.6300   11.4095    5.5122 C   0  0  0  0  0  0  0  0  0  0  0  0
   24.4325   12.8094    5.4493 O   0  0  0  0  0  0  0  0  0  0  0  0
   25.4613    9.3395    1.8862 C   0  0  2  0  0  0  0  0  0  0  0  0
   26.4266    9.1997    2.8412 O   0  0  0  0  0  0  0  0  0  0  0  0
   25.4748    8.2085    0.9004 C   0  0  1  0  0  0  0  0  0  0  0  0
   25.9744   12.3726   -1.5748 N   0  0  0  0  0  0  0  0  0  0  0  0
   33.5441    8.6794    0.3951 O   0  0  0  0  0  0  0  0  0  0  0  0
   24.3719    8.4601   -0.1998 C   0  0  2  0  0  0  0  0  0  0  0  0
   24.5350    9.8252   -0.9539 C   0  0  1  0  0  0  0  0  0  0  0  0
   24.5092   10.8973    0.0133 C   0  0  1  0  0  0  0  0  0  0  0  0
   25.5615   10.6786    1.0837 O   0  0  0  0  0  0  0  0  0  0  0  0
   24.7160   12.3024   -0.7050 C   0  0  0  0  0  0  0  0  0  0  0  0
   26.7271    8.1438    0.2571 N   0  0  0  0  0  0  0  0  0  0  0  0
   27.6284    9.8893   11.3536 O   0  0  0  0  0  0  0  0  0  0  0  0
   34.3476   10.6157    1.2698 C   0  0  0  0  0  0  0  0  0  0  0  0
   25.5537    9.8263   -1.4829 O   0  0  0  0  0  0  0  0  0  0  0  0
   23.3468    8.4902    0.3212 O   0  0  0  0  0  0  0  0  0  0  0  0
   32.9231    9.3848    2.7038 C   0  0  0  0  0  0  0  0  0  0  0  0
   35.4845   10.6287    0.4930 C   0  0  0  0  0  0  0  0  0  0  0  0
   34.0523    9.3467    1.5484 C   0  0  1  0  0  0  0  0  0  0  0  0
   25.6087    8.4787   10.3376 F   0  0  0  0  0  0  0  0  0  0  0  0
  1  2  1  1  0  0  0
  1 10  1  0  0  0  0
  1  3  1  0  0  0  0
  3  4  1  1  0  0  0
  3  6  1  0  0  0  0
  5 46  2  0  0  0  0
  6 42  1  1  0  0  0
  6  8  1  0  0  0  0
  7 47  1  0  0  0  0
  8  9  1  0  0  0  0
  8 49  1  6  0  0  0
  9 10  1  0  0  0  0
  9 11  1  6  0  0  0
 11 12  1  0  0  0  0
 13 14  1  6  0  0  0
 13 15  1  0  0  0  0
 13 21  1  0  0  0  0
 14 46  1  0  0  0  0
 15 16  1  0  0  0  0
 16 17  1  6  0  0  0
 16 18  1  0  0  0  0
 18  2  1  1  0  0  0
 18 19  1  0  0  0  0
 19 20  1  6  0  0  0
 19 21  1  0  0  0  0
 21 22  1  1  0  0  0
 23 20  1  1  0  0  0
 23 24  1  0  0  0  0
 23 28  1  0  0  0  0
 24 25  1  6  0  0  0
 24 26  1  0  0  0  0
 26 27  1  0  0  0  0
 26 32  1  6  0  0  0
 27 28  1  0  0  0  0
 27 29  1  1  0  0  0
 29 30  1  0  0  0  0
 31 32  1  1  0  0  0
 31 33  1  0  0  0  0
 31 39  1  0  0  0  0
 33 36  1  0  0  0  0
 33 41  1  6  0  0  0
 34 40  1  0  0  0  0
 35 48  1  0  0  0  0
 36 37  1  0  0  0  0
 36 45  1  1  0  0  0
 37 38  1  0  0  0  0
 37 44  1  1  0  0  0
 38 39  1  0  0  0  0
 38 40  1  6  0  0  0
 43 47  1  0  0  0  0
 46 48  1  0  0  0  0
 48 43  1  6  0  0  0
M  END
>  <CHROM.1>
-145.58667381,-174.00317736,-61.96855737,66.78362074,-62.58072076,70.34435213
-174.18924844,174.51610418,-141.16676338,-54.07460671,-60.02761161,-72.46670827
0.44577676,28.35922981,9.69844604,4.44234889,-1.75449734,-0.00116299,-1.42775473

>  <Name>
ligand

>  <RI>
0

>  <Rbt.Current_Directory>
/home/itssahil/PROJECTS/Mol_Feturizer/New_Systems/rnas/4PDQ

>  <Rbt.Executable>
rbdock ($Id: //depot/dev/client3/rdock/2013.1/src/exe/rbdock.cxx#4 $)

>  <Rbt.Library>
libRbt.so (2013.1, Build901 2013/11/27)

>  <Rbt.Parameter_File>
/export/apps/rDock/src/rDock_2013.1_src/data/scripts/dock_solv.prm

>  <Rbt.Receptor>
prm/pocket_docking_5.prm

>  <SCORE>
-11.7088

>  <SCORE.INTER>
-5.09425

>  <SCORE.INTER.CONST>
1

>  <SCORE.INTER.POLAR>
0

>  <SCORE.INTER.ROT>
13

>  <SCORE.INTER.SOLV>
17.5803

>  <SCORE.INTER.VDW>
-21.5229

>  <SCORE.INTER.norm>
-0.103964

>  <SCORE.INTRA>
-6.61457

>  <SCORE.INTRA.DIHEDRAL>
-22.3158

>  <SCORE.INTRA.DIHEDRAL.0>
34.5115

>  <SCORE.INTRA.POLAR>
0

>  <SCORE.INTRA.POLAR.0>
0

>  <SCORE.INTRA.REPUL>
0.0607726

>  <SCORE.INTRA.REPUL.0>
0

>  <SCORE.INTRA.SOLV>
0.295359

>  <SCORE.INTRA.SOLV.lig_0>
-122.812

>  <SCORE.INTRA.VDW>
4.0918

>  <SCORE.INTRA.VDW.0>
-7.46208

>  <SCORE.INTRA.norm>
-0.134991

>  <SCORE.RESTR>
0

>  <SCORE.RESTR.CAVITY>
0

>  <SCORE.RESTR.norm>
0

>  <SCORE.SYSTEM>
0

>  <SCORE.SYSTEM.CONST>
0

>  <SCORE.SYSTEM.DIHEDRAL>
0

>  <SCORE.SYSTEM.SOLV>
0

>  <SCORE.SYSTEM.norm>
0

>  <SCORE.heavy>
49

>  <SCORE.norm>
-0.238956

>  <RMSD>
7.835

$$$$
ligand
 OpenBabel11021811513D
libRbt.so/2013.1/901 2013/11/27
 49 52  0  0  0  0  0  0  0  0999 V2000
   26.9281    7.3176    5.4077 C   0  0  2  0  0  0  0  0  0  0  0  0
   26.5817    8.6616    5.2477 O   0  0  0  0  0  0  0  0  0  0  0  0
   27.0802    6.9873    6.9390 C   0  0  2  0  0  0  0  0  0  0  0  0
   25.7668    7.2837    7.6458 N   0  0  0  0  0  0  0  0  0  0  0  0
   25.4843   12.2737    0.8498 O   0  0  0  0  0  0  0  0  0  0  0  0
   28.2462    7.7978    7.5517 C   0  0  2  0  0  0  0  0  0  0  0  0
   24.0427   12.4613   -4.4090 N   0  0  0  0  0  0  0  0  0  0  0  0
   29.5574    7.4967    6.8090 C   0  0  2  0  0  0  0  0  0  0  0  0
   29.4418    7.8163    5.2585 C   0  0  2  0  0  0  0  0  0  0  0  0
   28.2461    7.0364    4.7087 O   0  0  0  0  0  0  0  0  0  0  0  0
   30.7544    7.4569    4.5039 C   0  0  0  0  0  0  0  0  0  0  0  0
   30.7451    7.8201    3.1320 N   0  0  0  0  0  0  0  0  0  0  0  0
   26.3962    9.5132    1.0000 C   0  0  2  0  0  0  0  0  0  0  0  0
   25.9962   10.1744   -0.2767 N   0  0  0  0  0  0  0  0  0  0  0  0
   25.0517    9.2616    1.8398 C   0  0  0  0  0  0  0  0  0  0  0  0
   25.3810    8.5405    3.1998 C   0  0  2  0  0  0  0  0  0  0  0  0
   24.1589    8.3225    3.9878 N   0  0  0  0  0  0  0  0  0  0  0  0
   26.3494    9.3986    4.0383 C   0  0  2  0  0  0  0  0  0  0  0  0
   27.6860    9.6692    3.2363 C   0  0  2  0  0  0  0  0  0  0  0  0
   28.5414   10.4850    4.1206 O   0  0  0  0  0  0  0  0  0  0  0  0
   27.3280   10.4658    1.8803 C   0  0  1  0  0  0  0  0  0  0  0  0
   28.5166   10.7010    1.1935 O   0  0  0  0  0  0  0  0  0  0  0  0
   28.4571   11.7551    4.3264 C   0  0  1  0  0  0  0  0  0  0  0  0
   27.4509   12.1951    5.4303 C   0  0  2  0  0  0  0  0  0  0  0  0
   26.2175   12.4245    4.8252 O   0  0  0  0  0  0  0  0  0  0  0  0
   28.1019   13.4534    5.8312 C   0  0  1  0  0  0  0  0  0  0  0  0
   29.6452   13.2268    5.8214 C   0  0  2  0  0  0  0  0  0  0  0  0
   29.7201   12.4069    4.6810 O   0  0  0  0  0  0  0  0  0  0  0  0
   30.3103   12.7238    7.1035 C   0  0  0  0  0  0  0  0  0  0  0  0
   30.1603   13.7567    8.0592 O   0  0  0  0  0  0  0  0  0  0  0  0
   26.7645   15.4312    5.2628 C   0  0  2  0  0  0  0  0  0  0  0  0
   27.6618   14.4916    4.8440 O   0  0  0  0  0  0  0  0  0  0  0  0
   27.3670   16.3854    6.2516 C   0  0  1  0  0  0  0  0  0  0  0  0
   21.9611   15.9801    7.2258 N   0  0  0  0  0  0  0  0  0  0  0  0
   26.2374   11.9616   -2.5567 O   0  0  0  0  0  0  0  0  0  0  0  0
   26.2647   17.4083    6.7300 C   0  0  2  0  0  0  0  0  0  0  0  0
   24.9993   16.7239    7.3540 C   0  0  1  0  0  0  0  0  0  0  0  0
   24.4324   15.8191    6.3817 C   0  0  1  0  0  0  0  0  0  0  0  0
   25.4735   14.8242    5.9048 O   0  0  0  0  0  0  0  0  0  0  0  0
   23.1678   15.0675    6.9892 C   0  0  0  0  0  0  0  0  0  0  0  0
   27.8298   15.6814    7.3815 N   0  0  0  0  0  0  0  0  0  0  0  0
   28.3623    7.5106    8.6519 O   0  0  0  0  0  0  0  0  0  0  0  0
   24.0708   11.5162   -2.0395 C   0  0  0  0  0  0  0  0  0  0  0  0
   25.3305   16.1217    8.2734 O   0  0  0  0  0  0  0  0  0  0  0  0
   25.9025   17.9997    5.8123 O   0  0  0  0  0  0  0  0  0  0  0  0
   25.5443   11.6017   -0.1896 C   0  0  0  0  0  0  0  0  0  0  0  0
   23.5293   12.1822   -3.1162 C   0  0  0  0  0  0  0  0  0  0  0  0
   25.1591   12.1785   -1.6492 C   0  0  1  0  0  0  0  0  0  0  0  0
   29.8880    6.1375    6.9525 F   0  0  0  0  0  0  0  0  0  0  0  0
  1  2  1  1  0  0  0
  1 10  1  0  0  0  0
  1  3  1  0  0  0  0
  3  4  1  1  0  0  0
  3  6  1  0  0  0  0
  5 46  2  0  0  0  0
  6 42  1  1  0  0  0
  6  8  1  0  0  0  0
  7 47  1  0  0  0  0
  8  9  1  0  0  0  0
  8 49  1  6  0  0  0
  9 10  1  0  0  0  0
  9 11  1  6  0  0  0
 11 12  1  0  0  0  0
 13 14  1  6  0  0  0
 13 15  1  0  0  0  0
 13 21  1  0  0  0  0
 14 46  1  0  0  0  0
 15 16  1  0  0  0  0
 16 17  1  1  0  0  0
 16 18  1  0  0  0  0
 18  2  1  1  0  0  0
 18 19  1  0  0  0  0
 19 20  1  1  0  0  0
 19 21  1  0  0  0  0
 21 22  1  6  0  0  0
 23 20  1  1  0  0  0
 23 24  1  0  0  0  0
 23 28  1  0  0  0  0
 24 25  1  6  0  0  0
 24 26  1  0  0  0  0
 26 27  1  0  0  0  0
 26 32  1  6  0  0  0
 27 28  1  0  0  0  0
 27 29  1  1  0  0  0
 29 30  1  0  0  0  0
 31 32  1  1  0  0  0
 31 33  1  0  0  0  0
 31 39  1  0  0  0  0
 33 36  1  0  0  0  0
 33 41  1  1  0  0  0
 34 40  1  0  0  0  0
 35 48  1  0  0  0  0
 36 37  1  0  0  0  0
 36 45  1  6  0  0  0
 37 38  1  0  0  0  0
 37 44  1  1  0  0  0
 38 39  1  0  0  0  0
 38 40  1  1  0  0  0
 43 47  1  0  0  0  0
 46 48  1  0  0  0  0
 48 43  1  6  0  0  0
M  END
>  <CHROM.1>
179.60264417,48.94108000,-175.29514381,71.82010683,-79.74500836,85.63765606
107.07618702,-65.74921624,69.45914603,68.80821072,62.05677731,-74.54132848
126.38465365,26.93847337,11.49765264,4.28242994,-1.22509337,-1.10655780,0.82209084

>  <Name>
ligand

>  <RI>
0

>  <Rbt.Current_Directory>
/home/itssahil/PROJECTS/Mol_Feturizer/New_Systems/rnas/4PDQ

>  <Rbt.Executable>
rbdock ($Id: //depot/dev/client3/rdock/2013.1/src/exe/rbdock.cxx#4 $)

>  <Rbt.Library>
libRbt.so (2013.1, Build901 2013/11/27)

>  <Rbt.Parameter_File>
/export/apps/rDock/src/rDock_2013.1_src/data/scripts/dock_solv.prm

>  <Rbt.Receptor>
prm/pocket_docking_7.prm

>  <SCORE>
-10.5653

>  <SCORE.INTER>
-4.18711

>  <SCORE.INTER.CONST>
1

>  <SCORE.INTER.POLAR>
0

>  <SCORE.INTER.ROT>
13

>  <SCORE.INTER.SOLV>
16.2232

>  <SCORE.INTER.VDW>
-20.4658

>  <SCORE.INTER.norm>
-0.0854512

>  <SCORE.INTRA>
-6.37822

>  <SCORE.INTRA.DIHEDRAL>
-20.3247

>  <SCORE.INTRA.DIHEDRAL.0>
34.5115

>  <SCORE.INTRA.POLAR>
0

>  <SCORE.INTRA.POLAR.0>
0

>  <SCORE.INTRA.REPUL>
0.0685804

>  <SCORE.INTRA.REPUL.0>
0

>  <SCORE.INTRA.SOLV>
2.51145

>  <SCORE.INTRA.SOLV.lig_0>
-122.812

>  <SCORE.INTRA.VDW>
2.18551

>  <SCORE.INTRA.VDW.0>
-7.46208

>  <SCORE.INTRA.norm>
-0.130168

>  <SCORE.RESTR>
0

>  <SCORE.RESTR.CAVITY>
0

>  <SCORE.RESTR.norm>
0

>  <SCORE.SYSTEM>
0

>  <SCORE.SYSTEM.CONST>
0

>  <SCORE.SYSTEM.DIHEDRAL>
0

>  <SCORE.SYSTEM.SOLV>
0

>  <SCORE.SYSTEM.norm>
0

>  <SCORE.heavy>
49

>  <SCORE.norm>
-0.215619

>  <RMSD>
7.845

$$$$
ligand
 OpenBabel11021811513D
libRbt.so/2013.1/901 2013/11/27
 49 52  0  0  0  0  0  0  0  0999 V2000
   28.2948   10.2607    2.4409 C   0  0  2  0  0  0  0  0  0  0  0  0
   27.4487   10.8886    1.5234 O   0  0  0  0  0  0  0  0  0  0  0  0
   29.2266   11.3306    3.1223 C   0  0  2  0  0  0  0  0  0  0  0  0
   28.3641   12.3695    3.8217 N   0  0  0  0  0  0  0  0  0  0  0  0
   22.8865   12.1394   -3.0571 O   0  0  0  0  0  0  0  0  0  0  0  0
   30.1555   11.9830    2.0719 C   0  0  2  0  0  0  0  0  0  0  0  0
   20.0873   12.3817   -5.5892 N   0  0  0  0  0  0  0  0  0  0  0  0
   31.0018   10.9123    1.3653 C   0  0  2  0  0  0  0  0  0  0  0  0
   30.0950    9.8127    0.6666 C   0  0  2  0  0  0  0  0  0  0  0  0
   29.1589    9.2349    1.7296 O   0  0  0  0  0  0  0  0  0  0  0  0
   30.9585    8.7022    0.0009 C   0  0  0  0  0  0  0  0  0  0  0  0
   31.6850    7.9088    0.9265 N   0  0  0  0  0  0  0  0  0  0  0  0
   24.0333   10.3271   -1.0886 C   0  0  2  0  0  0  0  0  0  0  0  0
   23.2284    9.8634   -2.2566 N   0  0  0  0  0  0  0  0  0  0  0  0
   25.4174   10.8965   -1.6686 C   0  0  0  0  0  0  0  0  0  0  0  0
   26.3234   11.4330   -0.4983 C   0  0  2  0  0  0  0  0  0  0  0  0
   27.6034   11.9392   -1.0152 N   0  0  0  0  0  0  0  0  0  0  0  0
   26.6217   10.3030    0.5071 C   0  0  2  0  0  0  0  0  0  0  0  0
   25.2758    9.7156    1.0957 C   0  0  2  0  0  0  0  0  0  0  0  0
   25.6672    8.6548    2.0449 O   0  0  0  0  0  0  0  0  0  0  0  0
   24.3960    9.1142   -0.1150 C   0  0  1  0  0  0  0  0  0  0  0  0
   23.2210    8.5958    0.4238 O   0  0  0  0  0  0  0  0  0  0  0  0
   25.9134    8.7914    3.3033 C   0  0  1  0  0  0  0  0  0  0  0  0
   24.6654    8.9180    4.2257 C   0  0  2  0  0  0  0  0  0  0  0  0
   24.3578   10.2703    4.3545 O   0  0  0  0  0  0  0  0  0  0  0  0
   25.2508    8.3738    5.4623 C   0  0  1  0  0  0  0  0  0  0  0  0
   26.1775    7.1796    5.0767 C   0  0  2  0  0  0  0  0  0  0  0  0
   26.7159    7.7176    3.8939 O   0  0  0  0  0  0  0  0  0  0  0  0
   25.5628    5.7810    5.0061 C   0  0  0  0  0  0  0  0  0  0  0  0
   26.6401    4.8841    4.8121 O   0  0  0  0  0  0  0  0  0  0  0  0
   26.9777    9.1862    7.0054 C   0  0  2  0  0  0  0  0  0  0  0  0
   25.9965    9.5010    6.1101 O   0  0  0  0  0  0  0  0  0  0  0  0
   27.3456   10.3537    7.8729 C   0  0  1  0  0  0  0  0  0  0  0  0
   31.8001    7.2058    7.3691 N   0  0  0  0  0  0  0  0  0  0  0  0
   22.2224    8.8905   -4.5458 O   0  0  0  0  0  0  0  0  0  0  0  0
   28.5160    9.9350    8.8450 C   0  0  2  0  0  0  0  0  0  0  0  0
   29.7900    9.4011    8.1029 C   0  0  1  0  0  0  0  0  0  0  0  0
   29.4130    8.2734    7.2834 C   0  0  1  0  0  0  0  0  0  0  0  0
   28.2874    8.6502    6.3387 O   0  0  0  0  0  0  0  0  0  0  0  0
   30.6700    7.7250    6.4757 C   0  0  0  0  0  0  0  0  0  0  0  0
   27.8011   11.4229    7.0756 N   0  0  0  0  0  0  0  0  0  0  0  0
   30.8487   12.7248    2.5967 O   0  0  0  0  0  0  0  0  0  0  0  0
   20.5778   10.3859   -4.0777 C   0  0  0  0  0  0  0  0  0  0  0  0
   30.1898   10.2363    7.4247 O   0  0  0  0  0  0  0  0  0  0  0  0
   28.1379    9.0776    9.5122 O   0  0  0  0  0  0  0  0  0  0  0  0
   22.7016   10.9203   -3.1808 C   0  0  0  0  0  0  0  0  0  0  0  0
   20.1885   11.6755   -4.3629 C   0  0  0  0  0  0  0  0  0  0  0  0
   21.8654   10.2630   -4.3975 C   0  0  1  0  0  0  0  0  0  0  0  0
   31.8331   10.2666    2.2977 F   0  0  0  0  0  0  0  0  0  0  0  0
  1  2  1  6  0  0  0
  1 10  1  0  0  0  0
  1  3  1  0  0  0  0
  3  4  1  6  0  0  0
  3  6  1  0  0  0  0
  5 46  2  0  0  0  0
  6 42  1  1  0  0  0
  6  8  1  0  0  0  0
  7 47  1  0  0  0  0
  8  9  1  0  0  0  0
  8 49  1  1  0  0  0
  9 10  1  0  0  0  0
  9 11  1  1  0  0  0
 11 12  1  0  0  0  0
 13 14  1  6  0  0  0
 13 15  1  0  0  0  0
 13 21  1  0  0  0  0
 14 46  1  0  0  0  0
 15 16  1  0  0  0  0
 16 17  1  6  0  0  0
 16 18  1  0  0  0  0
 18  2  1  1  0  0  0
 18 19  1  0  0  0  0
 19 20  1  1  0  0  0
 19 21  1  0  0  0  0
 21 22  1  1  0  0  0
 23 20  1  6  0  0  0
 23 24  1  0  0  0  0
 23 28  1  0  0  0  0
 24 25  1  1  0  0  0
 24 26  1  0  0  0  0
 26 27  1  0  0  0  0
 26 32  1  6  0  0  0
 27 28  1  0  0  0  0
 27 29  1  6  0  0  0
 29 30  1  0  0  0  0
 31 32  1  6  0  0  0
 31 33  1  0  0  0  0
 31 39  1  0  0  0  0
 33 36  1  0  0  0  0
 33 41  1  6  0  0  0
 34 40  1  0  0  0  0
 35 48  1  0  0  0  0
 36 37  1  0  0  0  0
 36 45  1  1  0  0  0
 37 38  1  0  0  0  0
 37 44  1  6  0  0  0
 38 39  1  0  0  0  0
 38 40  1  6  0  0  0
 43 47  1  0  0  0  0
 46 48  1  0  0  0  0
 48 43  1  1  0  0  0
M  END
>  <CHROM.1>
167.17272948,-160.13598609,66.46616280,-69.23747167,89.44030744,77.87169042
-158.63934106,-172.60794169,-162.54474580,62.12062524,65.10195878,-161.06830217
159.05156762,26.79799183,9.71510570,2.39640078,-0.96411313,-0.21031694,-1.26141544

>  <Name>
ligand

>  <RI>
0

>  <Rbt.Current_Directory>
/home/itssahil/PROJECTS/Mol_Feturizer/New_Systems/rnas/4PDQ

>  <Rbt.Executable>
rbdock ($Id: //depot/dev/client3/rdock/2013.1/src/exe/rbdock.cxx#4 $)

>  <Rbt.Library>
libRbt.so (2013.1, Build901 2013/11/27)

>  <Rbt.Parameter_File>
/export/apps/rDock/src/rDock_2013.1_src/data/scripts/dock_solv.prm

>  <Rbt.Receptor>
prm/pocket_docking_6.prm

>  <SCORE>
-9.51183

>  <SCORE.INTER>
-2.27352

>  <SCORE.INTER.CONST>
1

>  <SCORE.INTER.POLAR>
0

>  <SCORE.INTER.ROT>
13

>  <SCORE.INTER.SOLV>
20.7505

>  <SCORE.INTER.VDW>
-20.6992

>  <SCORE.INTER.norm>
-0.0463983

>  <SCORE.INTRA>
-7.23831

>  <SCORE.INTRA.DIHEDRAL>
-19.807

>  <SCORE.INTRA.DIHEDRAL.0>
34.5115

>  <SCORE.INTRA.POLAR>
0

>  <SCORE.INTRA.POLAR.0>
0

>  <SCORE.INTRA.REPUL>
0.0586107

>  <SCORE.INTRA.REPUL.0>
0

>  <SCORE.INTRA.SOLV>
0.667778

>  <SCORE.INTRA.SOLV.lig_0>
-122.812

>  <SCORE.INTRA.VDW>
2.03825

>  <SCORE.INTRA.VDW.0>
-7.46208

>  <SCORE.INTRA.norm>
-0.147721

>  <SCORE.RESTR>
0

>  <SCORE.RESTR.CAVITY>
0

>  <SCORE.RESTR.norm>
0

>  <SCORE.SYSTEM>
0

>  <SCORE.SYSTEM.CONST>
0

>  <SCORE.SYSTEM.DIHEDRAL>
0

>  <SCORE.SYSTEM.SOLV>
0

>  <SCORE.SYSTEM.norm>
0

>  <SCORE.heavy>
49

>  <SCORE.norm>
-0.194119

>  <RMSD>
7.867

$$$$
ligand
 OpenBabel11021811513D
libRbt.so/2013.1/901 2013/11/27
 49 52  0  0  0  0  0  0  0  0999 V2000
   27.0301    7.9014    3.7377 C   0  0  2  0  0  0  0  0  0  0  0  0
   27.1672    9.2893    3.6541 O   0  0  0  0  0  0  0  0  0  0  0  0
   28.0658    7.2068    2.7775 C   0  0  2  0  0  0  0  0  0  0  0  0
   29.4726    7.6253    3.1752 N   0  0  0  0  0  0  0  0  0  0  0  0
   26.7799   14.8513    7.5980 O   0  0  0  0  0  0  0  0  0  0  0  0
   27.7636    7.5711    1.3051 C   0  0  2  0  0  0  0  0  0  0  0  0
   21.9790   17.4149    7.0575 N   0  0  0  0  0  0  0  0  0  0  0  0
   26.3313    7.1570    0.9330 C   0  0  2  0  0  0  0  0  0  0  0  0
   25.2568    7.8376    1.8827 C   0  0  2  0  0  0  0  0  0  0  0  0
   25.6263    7.4947    3.3271 O   0  0  0  0  0  0  0  0  0  0  0  0
   23.8135    7.3705    1.5357 C   0  0  0  0  0  0  0  0  0  0  0  0
   23.5580    6.0117    1.8559 N   0  0  0  0  0  0  0  0  0  0  0  0
   25.7475   12.6605    5.9827 C   0  0  2  0  0  0  0  0  0  0  0  0
   24.9314   13.8497    6.3660 N   0  0  0  0  0  0  0  0  0  0  0  0
   26.1581   12.8495    4.4425 C   0  0  0  0  0  0  0  0  0  0  0  0
   27.0473   11.6435    3.9597 C   0  0  2  0  0  0  0  0  0  0  0  0
   27.4133   11.7950    2.5437 N   0  0  0  0  0  0  0  0  0  0  0  0
   26.2797   10.3162    4.1206 C   0  0  2  0  0  0  0  0  0  0  0  0
   25.8557   10.1007    5.6294 C   0  0  2  0  0  0  0  0  0  0  0  0
   25.1401    8.8104    5.6782 O   0  0  0  0  0  0  0  0  0  0  0  0
   24.8933   11.3145    6.0789 C   0  0  1  0  0  0  0  0  0  0  0  0
   24.5252   11.1027    7.4053 O   0  0  0  0  0  0  0  0  0  0  0  0
   25.1697    7.9418    6.6308 C   0  0  1  0  0  0  0  0  0  0  0  0
   24.2013    6.7328    6.4726 C   0  0  2  0  0  0  0  0  0  0  0  0
   22.9970    7.0588    7.0916 O   0  0  0  0  0  0  0  0  0  0  0  0
   24.9611    5.7403    7.2508 C   0  0  1  0  0  0  0  0  0  0  0  0
   26.4777    5.9413    6.9462 C   0  0  2  0  0  0  0  0  0  0  0  0
   26.4844    7.3464    6.8809 O   0  0  0  0  0  0  0  0  0  0  0  0
   27.0877    5.1722    5.7734 C   0  0  0  0  0  0  0  0  0  0  0  0
   28.4775    5.4368    5.8061 O   0  0  0  0  0  0  0  0  0  0  0  0
   25.1340    5.1215    9.6195 C   0  0  2  0  0  0  0  0  0  0  0  0
   24.6219    5.9809    8.6907 O   0  0  0  0  0  0  0  0  0  0  0  0
   24.7029    5.4740   11.0127 C   0  0  1  0  0  0  0  0  0  0  0  0
   29.5507    5.4678   10.6789 N   0  0  0  0  0  0  0  0  0  0  0  0
   25.2313   17.0457    8.4063 O   0  0  0  0  0  0  0  0  0  0  0  0
   25.3701    4.4746   12.0355 C   0  0  2  0  0  0  0  0  0  0  0  0
   26.9357    4.4435   11.9549 C   0  0  1  0  0  0  0  0  0  0  0  0
   27.3257    4.0929   10.6093 C   0  0  1  0  0  0  0  0  0  0  0  0
   26.6962    5.0399    9.6052 O   0  0  0  0  0  0  0  0  0  0  0  0
   28.9111    4.0922   10.4697 C   0  0  0  0  0  0  0  0  0  0  0  0
   25.1293    6.7782   11.3345 N   0  0  0  0  0  0  0  0  0  0  0  0
   28.5022    7.0233    0.6264 O   0  0  0  0  0  0  0  0  0  0  0  0
   24.3222   16.6910    6.3550 C   0  0  0  0  0  0  0  0  0  0  0  0
   27.3309    5.4942   12.1946 O   0  0  0  0  0  0  0  0  0  0  0  0
   25.0047    3.4123   11.7883 O   0  0  0  0  0  0  0  0  0  0  0  0
   25.6051   14.8935    7.2058 C   0  0  0  0  0  0  0  0  0  0  0  0
   22.9532   16.7849    6.2410 C   0  0  0  0  0  0  0  0  0  0  0  0
   24.6007   16.1184    7.5255 C   0  0  1  0  0  0  0  0  0  0  0  0
   26.1921    5.7621    1.0431 F   0  0  0  0  0  0  0  0  0  0  0  0
  1  2  1  6  0  0  0
  1 10  1  0  0  0  0
  1  3  1  0  0  0  0
  3  4  1  1  0  0  0
  3  6  1  0  0  0  0
  5 46  2  0  0  0  0
  6 42  1  6  0  0  0
  6  8  1  0  0  0  0
  7 47  1  0  0  0  0
  8  9  1  0  0  0  0
  8 49  1  1  0  0  0
  9 10  1  0  0  0  0
  9 11  1  6  0  0  0
 11 12  1  0  0  0  0
 13 14  1  6  0  0  0
 13 15  1  0  0  0  0
 13 21  1  0  0  0  0
 14 46  1  0  0  0  0
 15 16  1  0  0  0  0
 16 17  1  6  0  0  0
 16 18  1  0  0  0  0
 18  2  1  1  0  0  0
 18 19  1  0  0  0  0
 19 20  1  6  0  0  0
 19 21  1  0  0  0  0
 21 22  1  1  0  0  0
 23 20  1  6  0  0  0
 23 24  1  0  0  0  0
 23 28  1  0  0  0  0
 24 25  1  1  0  0  0
 24 26  1  0  0  0  0
 26 27  1  0  0  0  0
 26 32  1  1  0  0  0
 27 28  1  0  0  0  0
 27 29  1  6  0  0  0
 29 30  1  0  0  0  0
 31 32  1  6  0  0  0
 31 33  1  0  0  0  0
 31 39  1  0  0  0  0
 33 36  1  0  0  0  0
 33 41  1  1  0  0  0
 34 40  1  0  0  0  0
 35 48  1  0  0  0  0
 36 37  1  0  0  0  0
 36 45  1  6  0  0  0
 37 38  1  0  0  0  0
 37 44  1  6  0  0  0
 38 39  1  0  0  0  0
 38 40  1  1  0  0  0
 43 47  1  0  0  0  0
 46 48  1  0  0  0  0
 48 43  1  6  0  0  0
M  END
>  <CHROM.1>
165.79802470,171.13171262,69.26696741,-104.12524666,144.16489912,174.10769368
175.59014053,-174.49196914,-179.44404625,-64.10075440,57.88143456,-112.23670748
-5.25969063,25.94129013,8.69219162,6.34132144,-0.82569378,1.34876776,-1.08768490

>  <Name>
ligand

>  <RI>
0

>  <Rbt.Current_Directory>
/home/itssahil/PROJECTS/Mol_Feturizer/New_Systems/rnas/4PDQ

>  <Rbt.Executable>
rbdock ($Id: //depot/dev/client3/rdock/2013.1/src/exe/rbdock.cxx#4 $)

>  <Rbt.Library>
libRbt.so (2013.1, Build901 2013/11/27)

>  <Rbt.Parameter_File>
/export/apps/rDock/src/rDock_2013.1_src/data/scripts/dock_solv.prm

>  <Rbt.Receptor>
prm/pocket_docking_8.prm

>  <SCORE>
-5.42442

>  <SCORE.INTER>
4.85685

>  <SCORE.INTER.CONST>
1

>  <SCORE.INTER.POLAR>
0

>  <SCORE.INTER.ROT>
13

>  <SCORE.INTER.SOLV>
21.5579

>  <SCORE.INTER.VDW>
-16.2147

>  <SCORE.INTER.norm>
0.0991194

>  <SCORE.INTRA>
-10.2813

>  <SCORE.INTRA.DIHEDRAL>
-20.9065

>  <SCORE.INTRA.DIHEDRAL.0>
34.5115

>  <SCORE.INTRA.POLAR>
0

>  <SCORE.INTRA.POLAR.0>
0

>  <SCORE.INTRA.REPUL>
0

>  <SCORE.INTRA.REPUL.0>
0

>  <SCORE.INTRA.SOLV>
-0.0861846

>  <SCORE.INTRA.SOLV.lig_0>
-122.812

>  <SCORE.INTRA.VDW>
0.215062

>  <SCORE.INTRA.VDW.0>
-7.46208

>  <SCORE.INTRA.norm>
-0.209822

>  <SCORE.RESTR>
0

>  <SCORE.RESTR.CAVITY>
0

>  <SCORE.RESTR.norm>
0

>  <SCORE.SYSTEM>
0

>  <SCORE.SYSTEM.CONST>
0

>  <SCORE.SYSTEM.DIHEDRAL>
0

>  <SCORE.SYSTEM.SOLV>
0

>  <SCORE.SYSTEM.norm>
0

>  <SCORE.heavy>
49

>  <SCORE.norm>
-0.110702

>  <RMSD>
7.875

$$$$
ligand
 OpenBabel11021811513D
libRbt.so/2013.1/901 2013/11/27
 49 52  0  0  0  0  0  0  0  0999 V2000
   32.2551    8.7753    2.6087 C   0  0  2  0  0  0  0  0  0  0  0  0
   31.5481    9.5655    1.6989 O   0  0  0  0  0  0  0  0  0  0  0  0
   33.4792    9.5856    3.1765 C   0  0  2  0  0  0  0  0  0  0  0  0
   32.9700   10.8478    3.8546 N   0  0  0  0  0  0  0  0  0  0  0  0
   26.4335    7.9781   -0.5757 O   0  0  0  0  0  0  0  0  0  0  0  0
   34.4778    9.9174    2.0431 C   0  0  2  0  0  0  0  0  0  0  0  0
   22.7818   10.7344   -4.0398 N   0  0  0  0  0  0  0  0  0  0  0  0
   34.9624    8.6287    1.3606 C   0  0  2  0  0  0  0  0  0  0  0  0
   33.7534    7.7823    0.7761 C   0  0  2  0  0  0  0  0  0  0  0  0
   32.7684    7.5247    1.9179 O   0  0  0  0  0  0  0  0  0  0  0  0
   34.2467    6.4525    0.1359 C   0  0  0  0  0  0  0  0  0  0  0  0
   35.1194    6.6366   -0.9680 N   0  0  0  0  0  0  0  0  0  0  0  0
   27.3709   10.3455    0.8355 C   0  0  2  0  0  0  0  0  0  0  0  0
   26.0491   10.2735    0.1464 N   0  0  0  0  0  0  0  0  0  0  0  0
   28.4858   10.5252   -0.3052 C   0  0  0  0  0  0  0  0  0  0  0  0
   29.9177   10.6352    0.3396 C   0  0  2  0  0  0  0  0  0  0  0  0
   30.9504   10.7800   -0.6969 N   0  0  0  0  0  0  0  0  0  0  0  0
   30.2322    9.3689    1.1609 C   0  0  2  0  0  0  0  0  0  0  0  0
   29.1476    9.1597    2.2935 C   0  0  2  0  0  0  0  0  0  0  0  0
   29.5398    7.9366    3.0213 O   0  0  0  0  0  0  0  0  0  0  0  0
   27.7004    8.9845    1.6035 C   0  0  1  0  0  0  0  0  0  0  0  0
   26.7622    8.7939    2.6150 O   0  0  0  0  0  0  0  0  0  0  0  0
   28.8555    7.3152    3.9204 C   0  0  1  0  0  0  0  0  0  0  0  0
   29.4994    6.0118    4.4782 C   0  0  2  0  0  0  0  0  0  0  0  0
   29.0551    4.9434    3.7029 O   0  0  0  0  0  0  0  0  0  0  0  0
   28.8750    6.0122    5.8117 C   0  0  1  0  0  0  0  0  0  0  0  0
   28.8267    7.4844    6.3253 C   0  0  2  0  0  0  0  0  0  0  0  0
   28.5250    8.1130    5.1037 O   0  0  0  0  0  0  0  0  0  0  0  0
   30.0219    8.0123    7.1202 C   0  0  0  0  0  0  0  0  0  0  0  0
   29.6881    9.3317    7.5081 O   0  0  0  0  0  0  0  0  0  0  0  0
   26.5843    5.6495    6.6145 C   0  0  2  0  0  0  0  0  0  0  0  0
   27.5121    5.4123    5.6417 O   0  0  0  0  0  0  0  0  0  0  0  0
   25.4059    4.7270    6.5073 C   0  0  1  0  0  0  0  0  0  0  0  0
   25.7363    9.9626    7.7518 N   0  0  0  0  0  0  0  0  0  0  0  0
   23.2570    9.2896   -0.2283 O   0  0  0  0  0  0  0  0  0  0  0  0
   24.3541    5.0897    7.6263 C   0  0  2  0  0  0  0  0  0  0  0  0
   23.8694    6.5801    7.5753 C   0  0  1  0  0  0  0  0  0  0  0  0
   25.0184    7.4474    7.6899 C   0  0  1  0  0  0  0  0  0  0  0  0
   26.0463    7.1185    6.6240 O   0  0  0  0  0  0  0  0  0  0  0  0
   24.5770    8.9738    7.5986 C   0  0  0  0  0  0  0  0  0  0  0  0
   24.7820    4.8845    5.2534 N   0  0  0  0  0  0  0  0  0  0  0  0
   35.3753   10.4689    2.4866 O   0  0  0  0  0  0  0  0  0  0  0  0
   24.2920   10.0669   -2.0950 C   0  0  0  0  0  0  0  0  0  0  0  0
   23.3662    6.7619    6.5597 O   0  0  0  0  0  0  0  0  0  0  0  0
   24.8550    4.9394    8.6509 O   0  0  0  0  0  0  0  0  0  0  0  0
   25.7110    8.9843   -0.5409 C   0  0  0  0  0  0  0  0  0  0  0  0
   23.1995    9.9606   -2.9263 C   0  0  0  0  0  0  0  0  0  0  0  0
   24.2492    9.0578   -1.2259 C   0  0  1  0  0  0  0  0  0  0  0  0
   35.6514    7.8260    2.2870 F   0  0  0  0  0  0  0  0  0  0  0  0
  1  2  1  6  0  0  0
  1 10  1  0  0  0  0
  1  3  1  0  0  0  0
  3  4  1  6  0  0  0
  3  6  1  0  0  0  0
  5 46  2  0  0  0  0
  6 42  1  1  0  0  0
  6  8  1  0  0  0  0
  7 47  1  0  0  0  0
  8  9  1  0  0  0  0
  8 49  1  1  0  0  0
  9 10  1  0  0  0  0
  9 11  1  1  0  0  0
 11 12  1  0  0  0  0
 13 14  1  6  0  0  0
 13 15  1  0  0  0  0
 13 21  1  0  0  0  0
 14 46  1  0  0  0  0
 15 16  1  0  0  0  0
 16 17  1  6  0  0  0
 16 18  1  0  0  0  0
 18  2  1  1  0  0  0
 18 19  1  0  0  0  0
 19 20  1  6  0  0  0
 19 21  1  0  0  0  0
 21 22  1  1  0  0  0
 23 20  1  6  0  0  0
 23 24  1  0  0  0  0
 23 28  1  0  0  0  0
 24 25  1  6  0  0  0
 24 26  1  0  0  0  0
 26 27  1  0  0  0  0
 26 32  1  6  0  0  0
 27 28  1  0  0  0  0
 27 29  1  6  0  0  0
 29 30  1  0  0  0  0
 31 32  1  6  0  0  0
 31 33  1  0  0  0  0
 31 39  1  0  0  0  0
 33 36  1  0  0  0  0
 33 41  1  6  0  0  0
 34 40  1  0  0  0  0
 35 48  1  0  0  0  0
 36 37  1  0  0  0  0
 36 45  1  1  0  0  0
 37 38  1  0  0  0  0
 37 44  1  6  0  0  0
 38 39  1  0  0  0  0
 38 40  1  6  0  0  0
 43 47  1  0  0  0  0
 46 48  1  0  0  0  0
 48 43  1  6  0  0  0
M  END
>  <CHROM.1>
-165.13144376,173.62741784,-62.06374149,76.06750178,-171.43121249,177.60360527
-160.95000684,-177.35188054,-165.39323317,178.35832096,-177.79004354,-75.18043147
118.10934011,28.56720504,8.18113255,3.06144386,-0.53392818,0.02119137,1.93328616

>  <Name>
ligand

>  <RI>
0

>  <Rbt.Current_Directory>
/home/itssahil/PROJECTS/Mol_Feturizer/New_Systems/rnas/4PDQ

>  <Rbt.Executable>
rbdock ($Id: //depot/dev/client3/rdock/2013.1/src/exe/rbdock.cxx#4 $)

>  <Rbt.Library>
libRbt.so (2013.1, Build901 2013/11/27)

>  <Rbt.Parameter_File>
/export/apps/rDock/src/rDock_2013.1_src/data/scripts/dock_solv.prm

>  <Rbt.Receptor>
prm/pocket_docking_6.prm

>  <SCORE>
-14.9347

>  <SCORE.INTER>
-2.31698

>  <SCORE.INTER.CONST>
1

>  <SCORE.INTER.POLAR>
0

>  <SCORE.INTER.ROT>
13

>  <SCORE.INTER.SOLV>
15.2713

>  <SCORE.INTER.VDW>
-18.9018

>  <SCORE.INTER.norm>
-0.0472854

>  <SCORE.INTRA>
-12.6257

>  <SCORE.INTRA.DIHEDRAL>
-28.3104

>  <SCORE.INTRA.DIHEDRAL.0>
34.5115

>  <SCORE.INTRA.POLAR>
0

>  <SCORE.INTRA.POLAR.0>
0

>  <SCORE.INTRA.REPUL>
0

>  <SCORE.INTRA.REPUL.0>
0

>  <SCORE.INTRA.SOLV>
-3.95434

>  <SCORE.INTRA.SOLV.lig_0>
-122.812

>  <SCORE.INTRA.VDW>
3.5067

>  <SCORE.INTRA.VDW.0>
-7.46208

>  <SCORE.INTRA.norm>
-0.257667

>  <SCORE.RESTR>
0.0079882

>  <SCORE.RESTR.CAVITY>
0.0079882

>  <SCORE.RESTR.norm>
0.000163025

>  <SCORE.SYSTEM>
0

>  <SCORE.SYSTEM.CONST>
0

>  <SCORE.SYSTEM.DIHEDRAL>
0

>  <SCORE.SYSTEM.SOLV>
0

>  <SCORE.SYSTEM.norm>
0

>  <SCORE.heavy>
49

>  <SCORE.norm>
-0.304789

>  <RMSD>
7.877

$$$$
ligand
 OpenBabel11021811513D
libRbt.so/2013.1/901 2013/11/27
 49 52  0  0  0  0  0  0  0  0999 V2000
   28.2626    9.1046    3.8893 C   0  0  2  0  0  0  0  0  0  0  0  0
   28.9929    8.1461    4.5963 O   0  0  0  0  0  0  0  0  0  0  0  0
   28.2699    8.7525    2.3553 C   0  0  2  0  0  0  0  0  0  0  0  0
   27.6632    7.3722    2.1578 N   0  0  0  0  0  0  0  0  0  0  0  0
   28.3308    3.1340    9.2472 O   0  0  0  0  0  0  0  0  0  0  0  0
   29.7091    8.8220    1.7935 C   0  0  2  0  0  0  0  0  0  0  0  0
   30.1539    3.5010   14.3581 N   0  0  0  0  0  0  0  0  0  0  0  0
   30.3075   10.2189    2.0223 C   0  0  2  0  0  0  0  0  0  0  0  0
   30.3153   10.6106    3.5605 C   0  0  2  0  0  0  0  0  0  0  0  0
   28.8842   10.4759    4.0841 O   0  0  0  0  0  0  0  0  0  0  0  0
   30.8709   12.0476    3.7790 C   0  0  0  0  0  0  0  0  0  0  0  0
   31.2369   12.3228    5.1223 N   0  0  0  0  0  0  0  0  0  0  0  0
   29.1978    5.6944    8.1670 C   0  0  2  0  0  0  0  0  0  0  0  0
   29.3106    5.3352    9.6111 N   0  0  0  0  0  0  0  0  0  0  0  0
   30.3298    6.7921    7.8665 C   0  0  0  0  0  0  0  0  0  0  0  0
   30.2980    7.2120    6.3497 C   0  0  2  0  0  0  0  0  0  0  0  0
   31.3177    8.2327    6.0661 N   0  0  0  0  0  0  0  0  0  0  0  0
   28.9177    7.7944    5.9857 C   0  0  2  0  0  0  0  0  0  0  0  0
   27.7767    6.7372    6.2744 C   0  0  2  0  0  0  0  0  0  0  0  0
   26.5065    7.3833    5.8890 O   0  0  0  0  0  0  0  0  0  0  0  0
   27.7885    6.3736    7.8458 C   0  0  1  0  0  0  0  0  0  0  0  0
   26.7736    5.4492    8.0806 O   0  0  0  0  0  0  0  0  0  0  0  0
   25.7537    8.1205    6.6324 C   0  0  1  0  0  0  0  0  0  0  0  0
   26.4275    9.3940    7.2231 C   0  0  2  0  0  0  0  0  0  0  0  0
   26.9675    9.0623    8.4634 O   0  0  0  0  0  0  0  0  0  0  0  0
   25.2259   10.2338    7.3607 C   0  0  1  0  0  0  0  0  0  0  0  0
   24.3147    9.9856    6.1191 C   0  0  2  0  0  0  0  0  0  0  0  0
   24.5311    8.6022    5.9852 O   0  0  0  0  0  0  0  0  0  0  0  0
   24.5235   10.8608    4.8825 C   0  0  0  0  0  0  0  0  0  0  0  0
   25.6408   10.3230    4.2005 O   0  0  0  0  0  0  0  0  0  0  0  0
   24.1227   10.8232    9.4723 C   0  0  2  0  0  0  0  0  0  0  0  0
   24.5733    9.8322    8.6487 O   0  0  0  0  0  0  0  0  0  0  0  0
   23.2241   11.7875    8.7555 C   0  0  1  0  0  0  0  0  0  0  0  0
   27.1494   12.5350   12.2773 N   0  0  0  0  0  0  0  0  0  0  0  0
   28.7487    2.3702   11.9173 O   0  0  0  0  0  0  0  0  0  0  0  0
   22.7835   12.9304    9.7504 C   0  0  2  0  0  0  0  0  0  0  0  0
   23.9867   13.7025   10.3946 C   0  0  1  0  0  0  0  0  0  0  0  0
   24.8305   12.7562   11.0858 C   0  0  1  0  0  0  0  0  0  0  0  0
   25.2681   11.6453   10.1501 O   0  0  0  0  0  0  0  0  0  0  0  0
   26.0915   13.4917   11.7199 C   0  0  0  0  0  0  0  0  0  0  0  0
   23.9152   12.3848    7.6822 N   0  0  0  0  0  0  0  0  0  0  0  0
   29.6826    8.6030    0.6720 O   0  0  0  0  0  0  0  0  0  0  0  0
   30.2841    4.0436   11.8687 C   0  0  0  0  0  0  0  0  0  0  0  0
   24.5923   14.1951    9.5530 O   0  0  0  0  0  0  0  0  0  0  0  0
   22.1994   12.4468   10.6153 O   0  0  0  0  0  0  0  0  0  0  0  0
   28.8156    3.9782   10.0140 C   0  0  0  0  0  0  0  0  0  0  0  0
   30.3803    4.3115   13.2159 C   0  0  0  0  0  0  0  0  0  0  0  0
   29.0166    3.7341   11.5987 C   0  0  1  0  0  0  0  0  0  0  0  0
   29.5537   11.1823    1.3288 F   0  0  0  0  0  0  0  0  0  0  0  0
  1  2  1  1  0  0  0
  1 10  1  0  0  0  0
  1  3  1  0  0  0  0
  3  4  1  1  0  0  0
  3  6  1  0  0  0  0
  5 46  2  0  0  0  0
  6 42  1  6  0  0  0
  6  8  1  0  0  0  0
  7 47  1  0  0  0  0
  8  9  1  0  0  0  0
  8 49  1  6  0  0  0
  9 10  1  0  0  0  0
  9 11  1  6  0  0  0
 11 12  1  0  0  0  0
 13 14  1  1  0  0  0
 13 15  1  0  0  0  0
 13 21  1  0  0  0  0
 14 46  1  0  0  0  0
 15 16  1  0  0  0  0
 16 17  1  1  0  0  0
 16 18  1  0  0  0  0
 18  2  1  6  0  0  0
 18 19  1  0  0  0  0
 19 20  1  1  0  0  0
 19 21  1  0  0  0  0
 21 22  1  6  0  0  0
 23 20  1  6  0  0  0
 23 24  1  0  0  0  0
 23 28  1  0  0  0  0
 24 25  1  1  0  0  0
 24 26  1  0  0  0  0
 26 27  1  0  0  0  0
 26 32  1  1  0  0  0
 27 28  1  0  0  0  0
 27 29  1  6  0  0  0
 29 30  1  0  0  0  0
 31 32  1  6  0  0  0
 31 33  1  0  0  0  0
 31 39  1  0  0  0  0
 33 36  1  0  0  0  0
 33 41  1  6  0  0  0
 34 40  1  0  0  0  0
 35 48  1  0  0  0  0
 36 37  1  0  0  0  0
 36 45  1  1  0  0  0
 37 38  1  0  0  0  0
 37 44  1  6  0  0  0
 38 39  1  0  0  0  0
 38 40  1  6  0  0  0
 43 47  1  0  0  0  0
 46 48  1  0  0  0  0
 48 43  1  6  0  0  0
M  END
>  <CHROM.1>
-157.75657085,-154.51491401,-164.05017402,-154.48099937,-88.15902149,58.63643808
135.77394400,79.81759873,52.56193599,-170.77728818,62.51355999,-81.61791411
8.67843534,27.41258659,8.88723320,7.32278906,-1.82111661,-0.89157130,2.11221913

>  <Name>
ligand

>  <RI>
0

>  <Rbt.Current_Directory>
/home/itssahil/PROJECTS/Mol_Feturizer/New_Systems/rnas/4PDQ

>  <Rbt.Executable>
rbdock ($Id: //depot/dev/client3/rdock/2013.1/src/exe/rbdock.cxx#4 $)

>  <Rbt.Library>
libRbt.so (2013.1, Build901 2013/11/27)

>  <Rbt.Parameter_File>
/export/apps/rDock/src/rDock_2013.1_src/data/scripts/dock_solv.prm

>  <Rbt.Receptor>
prm/pocket_docking_7.prm

>  <SCORE>
-2.91859

>  <SCORE.INTER>
-0.17016

>  <SCORE.INTER.CONST>
1

>  <SCORE.INTER.POLAR>
0

>  <SCORE.INTER.ROT>
13

>  <SCORE.INTER.SOLV>
17.2716

>  <SCORE.INTER.VDW>
-18.1373

>  <SCORE.INTER.norm>
-0.00347265

>  <SCORE.INTRA>
-2.75839

>  <SCORE.INTRA.DIHEDRAL>
-14.6384

>  <SCORE.INTRA.DIHEDRAL.0>
34.5115

>  <SCORE.INTRA.POLAR>
0

>  <SCORE.INTRA.POLAR.0>
0

>  <SCORE.INTRA.REPUL>
0

>  <SCORE.INTRA.REPUL.0>
0

>  <SCORE.INTRA.SOLV>
2.3307

>  <SCORE.INTRA.SOLV.lig_0>
-122.812

>  <SCORE.INTRA.VDW>
3.39547

>  <SCORE.INTRA.VDW.0>
-7.46208

>  <SCORE.INTRA.norm>
-0.0562937

>  <SCORE.RESTR>
0.00996254

>  <SCORE.RESTR.CAVITY>
0.00996254

>  <SCORE.RESTR.norm>
0.000203317

>  <SCORE.SYSTEM>
0

>  <SCORE.SYSTEM.CONST>
0

>  <SCORE.SYSTEM.DIHEDRAL>
0

>  <SCORE.SYSTEM.SOLV>
0

>  <SCORE.SYSTEM.norm>
0

>  <SCORE.heavy>
49

>  <SCORE.norm>
-0.0595631

>  <RMSD>
7.878

$$$$
ligand
 OpenBabel11021811513D
libRbt.so/2013.1/901 2013/11/27
 49 52  0  0  0  0  0  0  0  0999 V2000
   25.6499   14.6648    9.6851 C   0  0  2  0  0  0  0  0  0  0  0  0
   25.1283   13.8226    8.6999 O   0  0  0  0  0  0  0  0  0  0  0  0
   24.8130   14.5145   11.0096 C   0  0  2  0  0  0  0  0  0  0  0  0
   24.8637   13.0660   11.4696 N   0  0  0  0  0  0  0  0  0  0  0  0
   28.7502   11.9948    4.6532 O   0  0  0  0  0  0  0  0  0  0  0  0
   23.3570   14.9840   10.7830 C   0  0  2  0  0  0  0  0  0  0  0  0
   31.1203    9.9524    0.9520 N   0  0  0  0  0  0  0  0  0  0  0  0
   23.3326   16.4427   10.3001 C   0  0  2  0  0  0  0  0  0  0  0  0
   24.1692   16.6342    8.9648 C   0  0  2  0  0  0  0  0  0  0  0  0
   25.5830   16.1084    9.2200 O   0  0  0  0  0  0  0  0  0  0  0  0
   24.1862   18.1231    8.5124 C   0  0  0  0  0  0  0  0  0  0  0  0
   24.9285   18.3532    7.3250 N   0  0  0  0  0  0  0  0  0  0  0  0
   25.9144   12.6505    4.5998 C   0  0  2  0  0  0  0  0  0  0  0  0
   26.6704   12.1898    3.3985 N   0  0  0  0  0  0  0  0  0  0  0  0
   26.8034   13.7841    5.3077 C   0  0  0  0  0  0  0  0  0  0  0  0
   26.0647   14.3466    6.5789 C   0  0  2  0  0  0  0  0  0  0  0  0
   26.8785   15.3722    7.2481 N   0  0  0  0  0  0  0  0  0  0  0  0
   25.7954   13.2109    7.5862 C   0  0  2  0  0  0  0  0  0  0  0  0
   24.9232   12.0727    6.9177 C   0  0  2  0  0  0  0  0  0  0  0  0
   24.7165   11.0452    7.9573 O   0  0  0  0  0  0  0  0  0  0  0  0
   25.7305   11.4691    5.6586 C   0  0  1  0  0  0  0  0  0  0  0  0
   24.9509   10.4651    5.0895 O   0  0  0  0  0  0  0  0  0  0  0  0
   25.5529   10.1362    8.3275 C   0  0  1  0  0  0  0  0  0  0  0  0
   27.0169   10.6167    8.5520 C   0  0  2  0  0  0  0  0  0  0  0  0
   27.7099   10.4680    7.3531 O   0  0  0  0  0  0  0  0  0  0  0  0
   27.4277    9.6106    9.5455 C   0  0  1  0  0  0  0  0  0  0  0  0
   26.2263    9.3594   10.5083 C   0  0  2  0  0  0  0  0  0  0  0  0
   25.1907    9.4307    9.5591 O   0  0  0  0  0  0  0  0  0  0  0  0
   26.1065   10.2326   11.7581 C   0  0  0  0  0  0  0  0  0  0  0  0
   27.2211    9.9164   12.5707 O   0  0  0  0  0  0  0  0  0  0  0  0
   28.2454    7.2976    9.4761 C   0  0  2  0  0  0  0  0  0  0  0  0
   27.8178    8.3869    8.7732 O   0  0  0  0  0  0  0  0  0  0  0  0
   28.8546    6.2550    8.5857 C   0  0  1  0  0  0  0  0  0  0  0  0
   25.8093    5.7491   13.0664 N   0  0  0  0  0  0  0  0  0  0  0  0
   28.0385   11.8663    1.0950 O   0  0  0  0  0  0  0  0  0  0  0  0
   29.2783    5.0077    9.4544 C   0  0  2  0  0  0  0  0  0  0  0  0
   28.0978    4.3823   10.2755 C   0  0  1  0  0  0  0  0  0  0  0  0
   27.5348    5.4007   11.1308 C   0  0  1  0  0  0  0  0  0  0  0  0
   27.1192    6.6127   10.3187 O   0  0  0  0  0  0  0  0  0  0  0  0
   26.3018    4.8204   11.9529 C   0  0  0  0  0  0  0  0  0  0  0  0
   27.9109    5.8233    7.6321 N   0  0  0  0  0  0  0  0  0  0  0  0
   22.7818   14.9037   11.7674 O   0  0  0  0  0  0  0  0  0  0  0  0
   30.0332   11.9060    2.1810 C   0  0  0  0  0  0  0  0  0  0  0  0
   27.2921    4.0290    9.5382 O   0  0  0  0  0  0  0  0  0  0  0  0
   30.0657    5.3540   10.2181 O   0  0  0  0  0  0  0  0  0  0  0  0
   28.1287   11.8947    3.5858 C   0  0  0  0  0  0  0  0  0  0  0  0
   30.7268   11.3000    1.1575 C   0  0  0  0  0  0  0  0  0  0  0  0
   28.8022   11.3966    2.2038 C   0  0  1  0  0  0  0  0  0  0  0  0
   23.8816   17.2826   11.2852 F   0  0  0  0  0  0  0  0  0  0  0  0
  1  2  1  6  0  0  0
  1 10  1  0  0  0  0
  1  3  1  0  0  0  0
  3  4  1  6  0  0  0
  3  6  1  0  0  0  0
  5 46  2  0  0  0  0
  6 42  1  1  0  0  0
  6  8  1  0  0  0  0
  7 47  1  0  0  0  0
  8  9  1  0  0  0  0
  8 49  1  1  0  0  0
  9 10  1  0  0  0  0
  9 11  1  1  0  0  0
 11 12  1  0  0  0  0
 13 14  1  6  0  0  0
 13 15  1  0  0  0  0
 13 21  1  0  0  0  0
 14 46  1  0  0  0  0
 15 16  1  0  0  0  0
 16 17  1  1  0  0  0
 16 18  1  0  0  0  0
 18  2  1  1  0  0  0
 18 19  1  0  0  0  0
 19 20  1  1  0  0  0
 19 21  1  0  0  0  0
 21 22  1  6  0  0  0
 23 20  1  1  0  0  0
 23 24  1  0  0  0  0
 23 28  1  0  0  0  0
 24 25  1  6  0  0  0
 24 26  1  0  0  0  0
 26 27  1  0  0  0  0
 26 32  1  6  0  0  0
 27 28  1  0  0  0  0
 27 29  1  1  0  0  0
 29 30  1  0  0  0  0
 31 32  1  6  0  0  0
 31 33  1  0  0  0  0
 31 39  1  0  0  0  0
 33 36  1  0  0  0  0
 33 41  1  6  0  0  0
 34 40  1  0  0  0  0
 35 48  1  0  0  0  0
 36 37  1  0  0  0  0
 36 45  1  1  0  0  0
 37 38  1  0  0  0  0
 37 44  1  6  0  0  0
 38 39  1  0  0  0  0
 38 40  1  6  0  0  0
 43 47  1  0  0  0  0
 46 48  1  0  0  0  0
 48 43  1  6  0  0  0
M  END
>  <CHROM.1>
-152.28533198,-72.73711214,179.65717377,46.47886620,-79.43278835,45.30872420
179.85073073,-65.66400546,-168.66695684,169.38060933,-64.04883170,-72.07873378
-157.43620803,26.58564495,11.12902982,8.07123190,2.20498460,1.06746866,-0.72958083

>  <Name>
ligand

>  <RI>
0

>  <Rbt.Current_Directory>
/home/itssahil/PROJECTS/Mol_Feturizer/New_Systems/rnas/4PDQ

>  <Rbt.Executable>
rbdock ($Id: //depot/dev/client3/rdock/2013.1/src/exe/rbdock.cxx#4 $)

>  <Rbt.Library>
libRbt.so (2013.1, Build901 2013/11/27)

>  <Rbt.Parameter_File>
/export/apps/rDock/src/rDock_2013.1_src/data/scripts/dock_solv.prm

>  <Rbt.Receptor>
prm/pocket_docking_8.prm

>  <SCORE>
-5.79678

>  <SCORE.INTER>
-0.33818

>  <SCORE.INTER.CONST>
1

>  <SCORE.INTER.POLAR>
0

>  <SCORE.INTER.ROT>
13

>  <SCORE.INTER.SOLV>
13.0768

>  <SCORE.INTER.VDW>
-16.851

>  <SCORE.INTER.norm>
-0.00690163

>  <SCORE.INTRA>
-5.48837

>  <SCORE.INTRA.DIHEDRAL>
-23.9938

>  <SCORE.INTRA.DIHEDRAL.0>
34.5115

>  <SCORE.INTRA.POLAR>
0

>  <SCORE.INTRA.POLAR.0>
0

>  <SCORE.INTRA.REPUL>
0.0251538

>  <SCORE.INTRA.REPUL.0>
0

>  <SCORE.INTRA.SOLV>
2.87364

>  <SCORE.INTRA.SOLV.lig_0>
-122.812

>  <SCORE.INTRA.VDW>
4.94596

>  <SCORE.INTRA.VDW.0>
-7.46208

>  <SCORE.INTRA.norm>
-0.112008

>  <SCORE.RESTR>
0.0297691

>  <SCORE.RESTR.CAVITY>
0.0297691

>  <SCORE.RESTR.norm>
0.000607533

>  <SCORE.SYSTEM>
0

>  <SCORE.SYSTEM.CONST>
0

>  <SCORE.SYSTEM.DIHEDRAL>
0

>  <SCORE.SYSTEM.SOLV>
0

>  <SCORE.SYSTEM.norm>
0

>  <SCORE.heavy>
49

>  <SCORE.norm>
-0.118302

>  <RMSD>
7.933

$$$$
ligand
 OpenBabel11021811513D
libRbt.so/2013.1/901 2013/11/27
 49 52  0  0  0  0  0  0  0  0999 V2000
   27.9938    7.3359    0.9150 C   0  0  2  0  0  0  0  0  0  0  0  0
   27.1469    8.1564    1.6644 O   0  0  0  0  0  0  0  0  0  0  0  0
   28.9956    6.5907    1.8732 C   0  0  2  0  0  0  0  0  0  0  0  0
   28.2052    5.7628    2.8744 N   0  0  0  0  0  0  0  0  0  0  0  0
   24.0552   11.4209   -3.5149 O   0  0  0  0  0  0  0  0  0  0  0  0
   29.9176    7.6080    2.5852 C   0  0  2  0  0  0  0  0  0  0  0  0
   22.3340    9.5062   -4.8576 N   0  0  0  0  0  0  0  0  0  0  0  0
   30.6900    8.4453    1.5538 C   0  0  2  0  0  0  0  0  0  0  0  0
   29.7113    9.2116    0.5666 C   0  0  2  0  0  0  0  0  0  0  0  0
   28.7859    8.1743   -0.0721 O   0  0  0  0  0  0  0  0  0  0  0  0
   30.5005   10.0127   -0.5090 C   0  0  0  0  0  0  0  0  0  0  0  0
   29.6772   10.7952   -1.3598 N   0  0  0  0  0  0  0  0  0  0  0  0
   24.2400    9.9083   -1.0345 C   0  0  2  0  0  0  0  0  0  0  0  0
   22.9839   10.5658   -1.5001 N   0  0  0  0  0  0  0  0  0  0  0  0
   23.8104    8.7393   -0.0218 C   0  0  0  0  0  0  0  0  0  0  0  0
   25.0816    7.9726    0.5021 C   0  0  2  0  0  0  0  0  0  0  0  0
   24.7024    6.9117    1.4468 N   0  0  0  0  0  0  0  0  0  0  0  0
   26.0320    8.9469    1.2263 C   0  0  2  0  0  0  0  0  0  0  0  0
   26.4720   10.1160    0.2555 C   0  0  2  0  0  0  0  0  0  0  0  0
   27.3784   10.9822    1.0348 O   0  0  0  0  0  0  0  0  0  0  0  0
   25.1585   10.9255   -0.2145 C   0  0  1  0  0  0  0  0  0  0  0  0
   25.5670   11.9534   -1.0607 O   0  0  0  0  0  0  0  0  0  0  0  0
   27.0801   11.6780    2.0787 C   0  0  1  0  0  0  0  0  0  0  0  0
   26.6442   10.8628    3.3317 C   0  0  2  0  0  0  0  0  0  0  0  0
   25.2596   10.7167    3.2930 O   0  0  0  0  0  0  0  0  0  0  0  0
   27.0609   11.8189    4.3710 C   0  0  1  0  0  0  0  0  0  0  0  0
   28.4139   12.4576    3.9296 C   0  0  2  0  0  0  0  0  0  0  0  0
   28.1453   12.5646    2.5531 O   0  0  0  0  0  0  0  0  0  0  0  0
   29.7113   11.7648    4.3490 C   0  0  0  0  0  0  0  0  0  0  0  0
   29.7348   11.7906    5.7637 O   0  0  0  0  0  0  0  0  0  0  0  0
   26.1815   13.9341    5.2519 C   0  0  2  0  0  0  0  0  0  0  0  0
   25.9560   12.8247    4.4892 O   0  0  0  0  0  0  0  0  0  0  0  0
   26.5606   13.5829    6.6605 C   0  0  1  0  0  0  0  0  0  0  0  0
   22.5818   16.3697    6.5646 N   0  0  0  0  0  0  0  0  0  0  0  0
   21.7380   12.7798   -4.3288 O   0  0  0  0  0  0  0  0  0  0  0  0
   26.7554   14.9075    7.4957 C   0  0  2  0  0  0  0  0  0  0  0  0
   25.4945   15.8396    7.5007 C   0  0  1  0  0  0  0  0  0  0  0  0
   25.1554   16.1714    6.1367 C   0  0  1  0  0  0  0  0  0  0  0  0
   24.9629   14.9133    5.3114 O   0  0  0  0  0  0  0  0  0  0  0  0
   23.8516   17.0830    6.0914 C   0  0  0  0  0  0  0  0  0  0  0  0
   25.5317   12.8327    7.2646 N   0  0  0  0  0  0  0  0  0  0  0  0
   30.6610    7.0409    3.2425 O   0  0  0  0  0  0  0  0  0  0  0  0
   20.7944   10.9311   -3.4058 C   0  0  0  0  0  0  0  0  0  0  0  0
   24.6206   15.2629    7.9712 O   0  0  0  0  0  0  0  0  0  0  0  0
   27.6105   15.5101    7.0172 O   0  0  0  0  0  0  0  0  0  0  0  0
   23.0496   11.3130   -2.7987 C   0  0  0  0  0  0  0  0  0  0  0  0
   21.2038   10.3127   -4.5660 C   0  0  0  0  0  0  0  0  0  0  0  0
   21.6144   11.9550   -3.1722 C   0  0  1  0  0  0  0  0  0  0  0  0
   31.5219    7.6112    0.7859 F   0  0  0  0  0  0  0  0  0  0  0  0
  1  2  1  1  0  0  0
  1 10  1  0  0  0  0
  1  3  1  0  0  0  0
  3  4  1  1  0  0  0
  3  6  1  0  0  0  0
  5 46  2  0  0  0  0
  6 42  1  1  0  0  0
  6  8  1  0  0  0  0
  7 47  1  0  0  0  0
  8  9  1  0  0  0  0
  8 49  1  6  0  0  0
  9 10  1  0  0  0  0
  9 11  1  6  0  0  0
 11 12  1  0  0  0  0
 13 14  1  1  0  0  0
 13 15  1  0  0  0  0
 13 21  1  0  0  0  0
 14 46  1  0  0  0  0
 15 16  1  0  0  0  0
 16 17  1  1  0  0  0
 16 18  1  0  0  0  0
 18  2  1  6  0  0  0
 18 19  1  0  0  0  0
 19 20  1  1  0  0  0
 19 21  1  0  0  0  0
 21 22  1  6  0  0  0
 23 20  1  6  0  0  0
 23 24  1  0  0  0  0
 23 28  1  0  0  0  0
 24 25  1  6  0  0  0
 24 26  1  0  0  0  0
 26 27  1  0  0  0  0
 26 32  1  6  0  0  0
 27 28  1  0  0  0  0
 27 29  1  6  0  0  0
 29 30  1  0  0  0  0
 31 32  1  6  0  0  0
 31 33  1  0  0  0  0
 31 39  1  0  0  0  0
 33 36  1  0  0  0  0
 33 41  1  1  0  0  0
 34 40  1  0  0  0  0
 35 48  1  0  0  0  0
 36 37  1  0  0  0  0
 36 45  1  6  0  0  0
 37 38  1  0  0  0  0
 37 44  1  6  0  0  0
 38 39  1  0  0  0  0
 38 40  1  1  0  0  0
 43 47  1  0  0  0  0
 46 48  1  0  0  0  0
 48 43  1  6  0  0  0
M  END
>  <CHROM.1>
-175.50892703,55.54209238,-175.69146815,-157.63045900,-64.39940438,64.00693325
-170.68781919,-62.29462050,-57.06733288,-66.19496601,71.63902503,50.96893978
-7.28587447,26.31570163,11.12128760,1.95385738,-1.74674770,-0.61180109,0.94361490

>  <Name>
ligand

>  <RI>
0

>  <Rbt.Current_Directory>
/home/itssahil/PROJECTS/Mol_Feturizer/New_Systems/rnas/4PDQ

>  <Rbt.Executable>
rbdock ($Id: //depot/dev/client3/rdock/2013.1/src/exe/rbdock.cxx#4 $)

>  <Rbt.Library>
libRbt.so (2013.1, Build901 2013/11/27)

>  <Rbt.Parameter_File>
/export/apps/rDock/src/rDock_2013.1_src/data/scripts/dock_solv.prm

>  <Rbt.Receptor>
prm/pocket_docking_7.prm

>  <SCORE>
-12.1469

>  <SCORE.INTER>
-4.54518

>  <SCORE.INTER.CONST>
1

>  <SCORE.INTER.POLAR>
0

>  <SCORE.INTER.ROT>
13

>  <SCORE.INTER.SOLV>
19.2739

>  <SCORE.INTER.VDW>
-21.7214

>  <SCORE.INTER.norm>
-0.0927588

>  <SCORE.INTRA>
-7.6022

>  <SCORE.INTRA.DIHEDRAL>
-31.3507

>  <SCORE.INTRA.DIHEDRAL.0>
34.5115

>  <SCORE.INTRA.POLAR>
0

>  <SCORE.INTRA.POLAR.0>
0

>  <SCORE.INTRA.REPUL>
0

>  <SCORE.INTRA.REPUL.0>
0

>  <SCORE.INTRA.SOLV>
4.67744

>  <SCORE.INTRA.SOLV.lig_0>
-122.812

>  <SCORE.INTRA.VDW>
5.73441

>  <SCORE.INTRA.VDW.0>
-7.46208

>  <SCORE.INTRA.norm>
-0.155147

>  <SCORE.RESTR>
0.000458234

>  <SCORE.RESTR.CAVITY>
0.000458234

>  <SCORE.RESTR.norm>
9.35172e-06

>  <SCORE.SYSTEM>
0

>  <SCORE.SYSTEM.CONST>
0

>  <SCORE.SYSTEM.DIHEDRAL>
0

>  <SCORE.SYSTEM.SOLV>
0

>  <SCORE.SYSTEM.norm>
0

>  <SCORE.heavy>
49

>  <SCORE.norm>
-0.247897

>  <RMSD>
7.944

$$$$
ligand
 OpenBabel11021811513D
libRbt.so/2013.1/901 2013/11/27
 49 52  0  0  0  0  0  0  0  0999 V2000
   28.4509   13.0356    6.8086 C   0  0  2  0  0  0  0  0  0  0  0  0
   27.8244   11.8713    6.3573 O   0  0  0  0  0  0  0  0  0  0  0  0
   28.7347   12.9215    8.3525 C   0  0  2  0  0  0  0  0  0  0  0  0
   29.6184   11.7108    8.6088 N   0  0  0  0  0  0  0  0  0  0  0  0
   24.0563    9.1975    1.2732 O   0  0  0  0  0  0  0  0  0  0  0  0
   27.4063   12.8271    9.1388 C   0  0  2  0  0  0  0  0  0  0  0  0
   22.8757   10.5542   -2.6026 N   0  0  0  0  0  0  0  0  0  0  0  0
   26.5228   14.0506    8.8485 C   0  0  2  0  0  0  0  0  0  0  0  0
   26.2162   14.2000    7.2982 C   0  0  2  0  0  0  0  0  0  0  0  0
   27.5549   14.2353    6.5586 O   0  0  0  0  0  0  0  0  0  0  0  0
   25.3680   15.4715    7.0058 C   0  0  0  0  0  0  0  0  0  0  0  0
   24.9874   15.6066    5.6453 N   0  0  0  0  0  0  0  0  0  0  0  0
   26.4720    9.9375    2.7194 C   0  0  2  0  0  0  0  0  0  0  0  0
   26.4791    9.4558    1.3069 N   0  0  0  0  0  0  0  0  0  0  0  0
   26.9590   11.4668    2.6963 C   0  0  0  0  0  0  0  0  0  0  0  0
   26.9576   12.0651    4.1524 C   0  0  2  0  0  0  0  0  0  0  0  0
   27.4215   13.4603    4.1471 N   0  0  0  0  0  0  0  0  0  0  0  0
   27.8935   11.2487    5.0660 C   0  0  2  0  0  0  0  0  0  0  0  0
   27.4430    9.7327    5.1077 C   0  0  2  0  0  0  0  0  0  0  0  0
   28.3897    9.0440    6.0070 O   0  0  0  0  0  0  0  0  0  0  0  0
   27.5159    9.1260    3.6150 C   0  0  1  0  0  0  0  0  0  0  0  0
   27.1239    7.7909    3.6741 O   0  0  0  0  0  0  0  0  0  0  0  0
   28.1432    8.0298    6.7642 C   0  0  1  0  0  0  0  0  0  0  0  0
   29.3693    7.4365    7.5188 C   0  0  2  0  0  0  0  0  0  0  0  0
   29.9268    6.4393    6.7222 O   0  0  0  0  0  0  0  0  0  0  0  0
   28.6602    6.8721    8.6792 C   0  0  1  0  0  0  0  0  0  0  0  0
   27.5319    7.8676    9.0906 C   0  0  2  0  0  0  0  0  0  0  0  0
   27.1357    8.2655    7.8010 O   0  0  0  0  0  0  0  0  0  0  0  0
   27.8690    8.9650   10.1010 C   0  0  0  0  0  0  0  0  0  0  0  0
   28.1523    8.3067   11.3213 O   0  0  0  0  0  0  0  0  0  0  0  0
   27.5681    4.7353    9.1937 C   0  0  2  0  0  0  0  0  0  0  0  0
   28.1283    5.5402    8.2441 O   0  0  0  0  0  0  0  0  0  0  0  0
   27.0966    3.4310    8.6212 C   0  0  1  0  0  0  0  0  0  0  0  0
   23.9777    4.6793   12.9813 N   0  0  0  0  0  0  0  0  0  0  0  0
   25.8195    7.2820   -0.8575 O   0  0  0  0  0  0  0  0  0  0  0  0
   26.4166    2.5754    9.7594 C   0  0  2  0  0  0  0  0  0  0  0  0
   25.2250    3.3064   10.4698 C   0  0  1  0  0  0  0  0  0  0  0  0
   25.7050    4.5522   11.0203 C   0  0  1  0  0  0  0  0  0  0  0  0
   26.3645    5.3945    9.9448 O   0  0  0  0  0  0  0  0  0  0  0  0
   24.5162    5.3507   11.7148 C   0  0  0  0  0  0  0  0  0  0  0  0
   26.1361    3.6640    7.6165 N   0  0  0  0  0  0  0  0  0  0  0  0
   27.6372   12.7865   10.2574 O   0  0  0  0  0  0  0  0  0  0  0  0
   24.1130    8.6862   -1.3829 C   0  0  0  0  0  0  0  0  0  0  0  0
   24.4199    3.5332    9.6837 O   0  0  0  0  0  0  0  0  0  0  0  0
   27.2059    2.3649   10.5693 O   0  0  0  0  0  0  0  0  0  0  0  0
   25.1519    9.1092    0.7009 C   0  0  0  0  0  0  0  0  0  0  0  0
   23.9438    9.9572   -1.8847 C   0  0  0  0  0  0  0  0  0  0  0  0
   25.3230    8.6185   -0.8292 C   0  0  1  0  0  0  0  0  0  0  0  0
   27.1691   15.2218    9.2820 F   0  0  0  0  0  0  0  0  0  0  0  0
  1  2  1  1  0  0  0
  1 10  1  0  0  0  0
  1  3  1  0  0  0  0
  3  4  1  6  0  0  0
  3  6  1  0  0  0  0
  5 46  2  0  0  0  0
  6 42  1  1  0  0  0
  6  8  1  0  0  0  0
  7 47  1  0  0  0  0
  8  9  1  0  0  0  0
  8 49  1  6  0  0  0
  9 10  1  0  0  0  0
  9 11  1  1  0  0  0
 11 12  1  0  0  0  0
 13 14  1  6  0  0  0
 13 15  1  0  0  0  0
 13 21  1  0  0  0  0
 14 46  1  0  0  0  0
 15 16  1  0  0  0  0
 16 17  1  6  0  0  0
 16 18  1  0  0  0  0
 18  2  1  1  0  0  0
 18 19  1  0  0  0  0
 19 20  1  1  0  0  0
 19 21  1  0  0  0  0
 21 22  1  1  0  0  0
 23 20  1  1  0  0  0
 23 24  1  0  0  0  0
 23 28  1  0  0  0  0
 24 25  1  6  0  0  0
 24 26  1  0  0  0  0
 26 27  1  0  0  0  0
 26 32  1  6  0  0  0
 27 28  1  0  0  0  0
 27 29  1  1  0  0  0
 29 30  1  0  0  0  0
 31 32  1  6  0  0  0
 31 33  1  0  0  0  0
 31 39  1  0  0  0  0
 33 36  1  0  0  0  0
 33 41  1  6  0  0  0
 34 40  1  0  0  0  0
 35 48  1  0  0  0  0
 36 37  1  0  0  0  0
 36 45  1  1  0  0  0
 37 38  1  0  0  0  0
 37 44  1  6  0  0  0
 38 39  1  0  0  0  0
 38 40  1  6  0  0  0
 43 47  1  0  0  0  0
 46 48  1  0  0  0  0
 48 43  1  1  0  0  0
M  END
>  <CHROM.1>
-149.53319657,-78.35891102,-175.96406011,-114.27295387,148.68851005,175.07345068
172.04633338,-65.81511074,-179.24728848,67.96886282,177.70892503,-152.81460167
-104.46619692,26.76320785,9.02907124,6.46625436,-1.93912187,1.33545222,2.58647897

>  <Name>
ligand

>  <RI>
0

>  <Rbt.Current_Directory>
/home/itssahil/PROJECTS/Mol_Feturizer/New_Systems/rnas/4PDQ

>  <Rbt.Executable>
rbdock ($Id: //depot/dev/client3/rdock/2013.1/src/exe/rbdock.cxx#4 $)

>  <Rbt.Library>
libRbt.so (2013.1, Build901 2013/11/27)

>  <Rbt.Parameter_File>
/export/apps/rDock/src/rDock_2013.1_src/data/scripts/dock_solv.prm

>  <Rbt.Receptor>
prm/pocket_docking_7.prm

>  <SCORE>
-7.90328

>  <SCORE.INTER>
-0.170306

>  <SCORE.INTER.CONST>
1

>  <SCORE.INTER.POLAR>
0

>  <SCORE.INTER.ROT>
13

>  <SCORE.INTER.SOLV>
19.7041

>  <SCORE.INTER.VDW>
-18.9482

>  <SCORE.INTER.norm>
-0.00347563

>  <SCORE.INTRA>
-7.73297

>  <SCORE.INTRA.DIHEDRAL>
-20.0851

>  <SCORE.INTRA.DIHEDRAL.0>
34.5115

>  <SCORE.INTRA.POLAR>
0

>  <SCORE.INTRA.POLAR.0>
0

>  <SCORE.INTRA.REPUL>
0

>  <SCORE.INTRA.REPUL.0>
0

>  <SCORE.INTRA.SOLV>
-0.0575387

>  <SCORE.INTRA.SOLV.lig_0>
-122.812

>  <SCORE.INTRA.VDW>
2.33837

>  <SCORE.INTRA.VDW.0>
-7.46208

>  <SCORE.INTRA.norm>
-0.157816

>  <SCORE.RESTR>
0

>  <SCORE.RESTR.CAVITY>
0

>  <SCORE.RESTR.norm>
0

>  <SCORE.SYSTEM>
0

>  <SCORE.SYSTEM.CONST>
0

>  <SCORE.SYSTEM.DIHEDRAL>
0

>  <SCORE.SYSTEM.SOLV>
0

>  <SCORE.SYSTEM.norm>
0

>  <SCORE.heavy>
49

>  <SCORE.norm>
-0.161291

>  <RMSD>
7.966

$$$$
ligand
 OpenBabel11021811513D
libRbt.so/2013.1/901 2013/11/27
 49 52  0  0  0  0  0  0  0  0999 V2000
   25.0982   12.3322    8.1396 C   0  0  2  0  0  0  0  0  0  0  0  0
   24.4470   11.5356    7.1944 O   0  0  0  0  0  0  0  0  0  0  0  0
   24.3619   12.2200    9.5262 C   0  0  2  0  0  0  0  0  0  0  0  0
   24.3570   10.7660    9.9716 N   0  0  0  0  0  0  0  0  0  0  0  0
   23.8557    9.0871    0.7932 O   0  0  0  0  0  0  0  0  0  0  0  0
   22.9252   12.7826    9.4203 C   0  0  2  0  0  0  0  0  0  0  0  0
   27.9559    5.6021    0.0791 N   0  0  0  0  0  0  0  0  0  0  0  0
   22.9552   14.2453    8.9499 C   0  0  2  0  0  0  0  0  0  0  0  0
   23.6929   14.3988    7.5528 C   0  0  2  0  0  0  0  0  0  0  0  0
   25.0863   13.7823    7.6902 O   0  0  0  0  0  0  0  0  0  0  0  0
   23.7684   15.8886    7.1097 C   0  0  0  0  0  0  0  0  0  0  0  0
   24.5185   16.0967    5.9231 N   0  0  0  0  0  0  0  0  0  0  0  0
   24.9387    9.3483    3.4827 C   0  0  2  0  0  0  0  0  0  0  0  0
   25.5960    8.5451    2.4104 N   0  0  0  0  0  0  0  0  0  0  0  0
   25.9523   10.5304    3.8720 C   0  0  0  0  0  0  0  0  0  0  0  0
   25.3240   11.4471    4.9869 C   0  0  2  0  0  0  0  0  0  0  0  0
   26.2519   12.5226    5.3668 N   0  0  0  0  0  0  0  0  0  0  0  0
   25.0073   10.6156    6.2460 C   0  0  2  0  0  0  0  0  0  0  0  0
   24.0118    9.4370    5.8956 C   0  0  2  0  0  0  0  0  0  0  0  0
   23.7679    8.7119    7.1582 O   0  0  0  0  0  0  0  0  0  0  0  0
   24.7055    8.4770    4.8007 C   0  0  1  0  0  0  0  0  0  0  0  0
   23.8181    7.4432    4.5118 O   0  0  0  0  0  0  0  0  0  0  0  0
   24.6342    8.0669    7.8627 C   0  0  1  0  0  0  0  0  0  0  0  0
   25.2716    6.8231    7.1761 C   0  0  2  0  0  0  0  0  0  0  0  0
   24.4974    5.7095    7.4929 O   0  0  0  0  0  0  0  0  0  0  0  0
   26.5578    6.8124    7.8928 C   0  0  1  0  0  0  0  0  0  0  0  0
   27.0255    8.2895    8.0741 C   0  0  2  0  0  0  0  0  0  0  0  0
   25.7687    8.8678    8.3285 O   0  0  0  0  0  0  0  0  0  0  0  0
   27.8867    8.9152    6.9760 C   0  0  0  0  0  0  0  0  0  0  0  0
   27.2040    8.6854    5.7579 O   0  0  0  0  0  0  0  0  0  0  0  0
   27.3847    5.8671   10.0013 C   0  0  2  0  0  0  0  0  0  0  0  0
   26.3101    6.1182    9.1977 O   0  0  0  0  0  0  0  0  0  0  0  0
   28.2552    4.7744    9.4543 C   0  0  1  0  0  0  0  0  0  0  0  0
   28.7141    4.7640   14.9296 N   0  0  0  0  0  0  0  0  0  0  0  0
   25.2786    7.8537   -1.3016 O   0  0  0  0  0  0  0  0  0  0  0  0
   29.4446    4.5026   10.4551 C   0  0  2  0  0  0  0  0  0  0  0  0
   28.9754    4.1335   11.9051 C   0  0  1  0  0  0  0  0  0  0  0  0
   28.1485    5.2029   12.4131 C   0  0  1  0  0  0  0  0  0  0  0  0
   26.9961    5.4845   11.4676 O   0  0  0  0  0  0  0  0  0  0  0  0
   27.6123    4.8505   13.8696 C   0  0  0  0  0  0  0  0  0  0  0  0
   27.5119    3.5839    9.3254 N   0  0  0  0  0  0  0  0  0  0  0  0
   22.4267   12.7276   10.4473 O   0  0  0  0  0  0  0  0  0  0  0  0
   27.0236    7.9758    0.1476 C   0  0  0  0  0  0  0  0  0  0  0  0
   28.3485    3.1736   11.8487 O   0  0  0  0  0  0  0  0  0  0  0  0
   30.0656    5.4668   10.5435 O   0  0  0  0  0  0  0  0  0  0  0  0
   24.9121    8.5045    1.0765 C   0  0  0  0  0  0  0  0  0  0  0  0
   27.8104    6.9523   -0.3314 C   0  0  0  0  0  0  0  0  0  0  0  0
   25.7486    7.6097    0.0224 C   0  0  1  0  0  0  0  0  0  0  0  0
   23.6334   15.0379    9.8928 F   0  0  0  0  0  0  0  0  0  0  0  0
  1  2  1  6  0  0  0
  1 10  1  0  0  0  0
  1  3  1  0  0  0  0
  3  4  1  6  0  0  0
  3  6  1  0  0  0  0
  5 46  2  0  0  0  0
  6 42  1  1  0  0  0
  6  8  1  0  0  0  0
  7 47  1  0  0  0  0
  8  9  1  0  0  0  0
  8 49  1  1  0  0  0
  9 10  1  0  0  0  0
  9 11  1  1  0  0  0
 11 12  1  0  0  0  0
 13 14  1  6  0  0  0
 13 15  1  0  0  0  0
 13 21  1  0  0  0  0
 14 46  1  0  0  0  0
 15 16  1  0  0  0  0
 16 17  1  1  0  0  0
 16 18  1  0  0  0  0
 18  2  1  1  0  0  0
 18 19  1  0  0  0  0
 19 20  1  1  0  0  0
 19 21  1  0  0  0  0
 21 22  1  6  0  0  0
 23 20  1  6  0  0  0
 23 24  1  0  0  0  0
 23 28  1  0  0  0  0
 24 25  1  1  0  0  0
 24 26  1  0  0  0  0
 26 27  1  0  0  0  0
 26 32  1  1  0  0  0
 27 28  1  0  0  0  0
 27 29  1  6  0  0  0
 29 30  1  0  0  0  0
 31 32  1  6  0  0  0
 31 33  1  0  0  0  0
 31 39  1  0  0  0  0
 33 36  1  0  0  0  0
 33 41  1  1  0  0  0
 34 40  1  0  0  0  0
 35 48  1  0  0  0  0
 36 37  1  0  0  0  0
 36 45  1  1  0  0  0
 37 38  1  0  0  0  0
 37 44  1  6  0  0  0
 38 39  1  0  0  0  0
 38 40  1  1  0  0  0
 43 47  1  0  0  0  0
 46 48  1  0  0  0  0
 48 43  1  6  0  0  0
M  END
>  <CHROM.1>
-133.87471541,-88.18123357,174.88932603,-117.31432442,-63.68420689,-64.16605169
174.02479372,51.14044145,-72.09333426,65.75306576,-61.15700637,-82.39398103
13.65215924,25.81282577,8.84663540,7.08647355,2.37665099,1.14802632,-1.69896433

>  <Name>
ligand

>  <RI>
0

>  <Rbt.Current_Directory>
/home/itssahil/PROJECTS/Mol_Feturizer/New_Systems/rnas/4PDQ

>  <Rbt.Executable>
rbdock ($Id: //depot/dev/client3/rdock/2013.1/src/exe/rbdock.cxx#4 $)

>  <Rbt.Library>
libRbt.so (2013.1, Build901 2013/11/27)

>  <Rbt.Parameter_File>
/export/apps/rDock/src/rDock_2013.1_src/data/scripts/dock_solv.prm

>  <Rbt.Receptor>
prm/pocket_docking_8.prm

>  <SCORE>
-8.12369

>  <SCORE.INTER>
-2.3432

>  <SCORE.INTER.CONST>
1

>  <SCORE.INTER.POLAR>
0

>  <SCORE.INTER.ROT>
13

>  <SCORE.INTER.SOLV>
17.1695

>  <SCORE.INTER.VDW>
-19.5519

>  <SCORE.INTER.norm>
-0.0478203

>  <SCORE.INTRA>
-5.78049

>  <SCORE.INTRA.DIHEDRAL>
-19.5798

>  <SCORE.INTRA.DIHEDRAL.0>
34.5115

>  <SCORE.INTRA.POLAR>
0

>  <SCORE.INTRA.POLAR.0>
0

>  <SCORE.INTRA.REPUL>
0.00583853

>  <SCORE.INTRA.REPUL.0>
0

>  <SCORE.INTRA.SOLV>
4.02566

>  <SCORE.INTRA.SOLV.lig_0>
-122.812

>  <SCORE.INTRA.VDW>
1.96738

>  <SCORE.INTRA.VDW.0>
-7.46208

>  <SCORE.INTRA.norm>
-0.117969

>  <SCORE.RESTR>
0

>  <SCORE.RESTR.CAVITY>
0

>  <SCORE.RESTR.norm>
0

>  <SCORE.SYSTEM>
0

>  <SCORE.SYSTEM.CONST>
0

>  <SCORE.SYSTEM.DIHEDRAL>
0

>  <SCORE.SYSTEM.SOLV>
0

>  <SCORE.SYSTEM.norm>
0

>  <SCORE.heavy>
49

>  <SCORE.norm>
-0.16579

>  <RMSD>
7.973

$$$$
ligand
 OpenBabel11021811513D
libRbt.so/2013.1/901 2013/11/27
 49 52  0  0  0  0  0  0  0  0999 V2000
   29.7737    7.9743    7.0424 C   0  0  2  0  0  0  0  0  0  0  0  0
   30.1892    8.4654    5.8021 O   0  0  0  0  0  0  0  0  0  0  0  0
   28.4557    7.1323    6.8655 C   0  0  2  0  0  0  0  0  0  0  0  0
   28.7225    5.9851    5.9036 N   0  0  0  0  0  0  0  0  0  0  0  0
   35.9938    7.6087    2.7385 O   0  0  0  0  0  0  0  0  0  0  0  0
   27.3039    8.0339    6.3630 C   0  0  2  0  0  0  0  0  0  0  0  0
   37.4913    6.9191   -2.4999 N   0  0  0  0  0  0  0  0  0  0  0  0
   27.0667    9.1958    7.3403 C   0  0  2  0  0  0  0  0  0  0  0  0
   28.3767   10.0682    7.5459 C   0  0  2  0  0  0  0  0  0  0  0  0
   29.4990    9.1282    7.9899 O   0  0  0  0  0  0  0  0  0  0  0  0
   28.1446   11.2089    8.5786 C   0  0  0  0  0  0  0  0  0  0  0  0
   27.2917   12.2419    8.1100 N   0  0  0  0  0  0  0  0  0  0  0  0
   33.0845    7.6848    2.6699 C   0  0  2  0  0  0  0  0  0  0  0  0
   33.9065    6.9224    1.6849 N   0  0  0  0  0  0  0  0  0  0  0  0
   33.1488    6.8805    4.0575 C   0  0  0  0  0  0  0  0  0  0  0  0
   32.3230    7.6329    5.1666 C   0  0  2  0  0  0  0  0  0  0  0  0
   32.3576    6.8950    6.4379 N   0  0  0  0  0  0  0  0  0  0  0  0
   30.8509    7.7760    4.7313 C   0  0  2  0  0  0  0  0  0  0  0  0
   30.7521    8.5621    3.3620 C   0  0  2  0  0  0  0  0  0  0  0  0
   29.3143    8.6516    3.0389 O   0  0  0  0  0  0  0  0  0  0  0  0
   31.5505    7.7376    2.2288 C   0  0  1  0  0  0  0  0  0  0  0  0
   31.4451    8.4407    1.0312 O   0  0  0  0  0  0  0  0  0  0  0  0
   28.7786    9.2840    2.0511 C   0  0  1  0  0  0  0  0  0  0  0  0
   28.1625    8.3925    0.9329 C   0  0  2  0  0  0  0  0  0  0  0  0
   29.1462    8.1581   -0.0249 O   0  0  0  0  0  0  0  0  0  0  0  0
   27.1396    9.3313    0.4428 C   0  0  1  0  0  0  0  0  0  0  0  0
   26.5324   10.0741    1.6729 C   0  0  2  0  0  0  0  0  0  0  0  0
   27.7135   10.2184    2.4229 O   0  0  0  0  0  0  0  0  0  0  0  0
   25.3208    9.4511    2.3678 C   0  0  0  0  0  0  0  0  0  0  0  0
   24.3539    9.2323    1.3578 O   0  0  0  0  0  0  0  0  0  0  0  0
   27.0642   10.9954   -1.3595 C   0  0  2  0  0  0  0  0  0  0  0  0
   27.8352   10.2573   -0.5084 O   0  0  0  0  0  0  0  0  0  0  0  0
   27.0570   12.4510   -0.9955 C   0  0  1  0  0  0  0  0  0  0  0  0
   22.2409   11.3822   -3.3382 N   0  0  0  0  0  0  0  0  0  0  0  0
   35.5312    4.8177    0.6265 O   0  0  0  0  0  0  0  0  0  0  0  0
   26.1094   13.2332   -1.9856 C   0  0  2  0  0  0  0  0  0  0  0  0
   24.6406   12.6850   -2.0161 C   0  0  1  0  0  0  0  0  0  0  0  0
   24.6728   11.2872   -2.3777 C   0  0  1  0  0  0  0  0  0  0  0  0
   25.5786   10.5120   -1.4399 O   0  0  0  0  0  0  0  0  0  0  0  0
   23.2030   10.6766   -2.3782 C   0  0  0  0  0  0  0  0  0  0  0  0
   26.5578   12.6192    0.3117 N   0  0  0  0  0  0  0  0  0  0  0  0
   26.3500    7.4095    6.2817 O   0  0  0  0  0  0  0  0  0  0  0  0
   36.0167    6.7727   -0.4233 C   0  0  0  0  0  0  0  0  0  0  0  0
   24.1951   12.7863   -0.9630 O   0  0  0  0  0  0  0  0  0  0  0  0
   26.5286   13.1158   -3.0504 O   0  0  0  0  0  0  0  0  0  0  0  0
   35.3956    6.9849    1.8505 C   0  0  0  0  0  0  0  0  0  0  0  0
   37.0653    6.4187   -1.2426 C   0  0  0  0  0  0  0  0  0  0  0  0
   36.1426    6.1025    0.7214 C   0  0  1  0  0  0  0  0  0  0  0  0
   26.6730    8.6947    8.5937 F   0  0  0  0  0  0  0  0  0  0  0  0
  1  2  1  6  0  0  0
  1 10  1  0  0  0  0
  1  3  1  0  0  0  0
  3  4  1  6  0  0  0
  3  6  1  0  0  0  0
  5 46  2  0  0  0  0
  6 42  1  1  0  0  0
  6  8  1  0  0  0  0
  7 47  1  0  0  0  0
  8  9  1  0  0  0  0
  8 49  1  1  0  0  0
  9 10  1  0  0  0  0
  9 11  1  1  0  0  0
 11 12  1  0  0  0  0
 13 14  1  6  0  0  0
 13 15  1  0  0  0  0
 13 21  1  0  0  0  0
 14 46  1  0  0  0  0
 15 16  1  0  0  0  0
 16 17  1  1  0  0  0
 16 18  1  0  0  0  0
 18  2  1  1  0  0  0
 18 19  1  0  0  0  0
 19 20  1  6  0  0  0
 19 21  1  0  0  0  0
 21 22  1  6  0  0  0
 23 20  1  1  0  0  0
 23 24  1  0  0  0  0
 23 28  1  0  0  0  0
 24 25  1  6  0  0  0
 24 26  1  0  0  0  0
 26 27  1  0  0  0  0
 26 32  1  6  0  0  0
 27 28  1  0  0  0  0
 27 29  1  1  0  0  0
 29 30  1  0  0  0  0
 31 32  1  1  0  0  0
 31 33  1  0  0  0  0
 31 39  1  0  0  0  0
 33 36  1  0  0  0  0
 33 41  1  1  0  0  0
 34 40  1  0  0  0  0
 35 48  1  0  0  0  0
 36 37  1  0  0  0  0
 36 45  1  6  0  0  0
 37 38  1  0  0  0  0
 37 44  1  1  0  0  0
 38 39  1  0  0  0  0
 38 40  1  1  0  0  0
 43 47  1  0  0  0  0
 46 48  1  0  0  0  0
 48 43  1  6  0  0  0
M  END
>  <CHROM.1>
-76.75299583,-76.66257050,-70.33321478,-73.17499340,175.33811716,110.04902022
163.37535276,-53.53653778,109.04885114,58.74011014,-172.81499616,-86.45803333
131.58625852,29.20644583,9.07358743,2.34076089,0.40876595,-0.40728792,1.73599043

>  <Name>
ligand

>  <RI>
0

>  <Rbt.Current_Directory>
/home/itssahil/PROJECTS/Mol_Feturizer/New_Systems/rnas/4PDQ

>  <Rbt.Executable>
rbdock ($Id: //depot/dev/client3/rdock/2013.1/src/exe/rbdock.cxx#4 $)

>  <Rbt.Library>
libRbt.so (2013.1, Build901 2013/11/27)

>  <Rbt.Parameter_File>
/export/apps/rDock/src/rDock_2013.1_src/data/scripts/dock_solv.prm

>  <Rbt.Receptor>
prm/pocket_docking_5.prm

>  <SCORE>
-8.2496

>  <SCORE.INTER>
-4.44913

>  <SCORE.INTER.CONST>
1

>  <SCORE.INTER.POLAR>
0

>  <SCORE.INTER.ROT>
13

>  <SCORE.INTER.SOLV>
22.6643

>  <SCORE.INTER.VDW>
-22.7875

>  <SCORE.INTER.norm>
-0.0907986

>  <SCORE.INTRA>
-3.80046

>  <SCORE.INTRA.DIHEDRAL>
-13.2785

>  <SCORE.INTRA.DIHEDRAL.0>
34.5115

>  <SCORE.INTRA.POLAR>
0

>  <SCORE.INTRA.POLAR.0>
0

>  <SCORE.INTRA.REPUL>
0.0101106

>  <SCORE.INTRA.REPUL.0>
0

>  <SCORE.INTRA.SOLV>
1.48285

>  <SCORE.INTRA.SOLV.lig_0>
-122.812

>  <SCORE.INTRA.VDW>
2.04681

>  <SCORE.INTRA.VDW.0>
-7.46208

>  <SCORE.INTRA.norm>
-0.0775605

>  <SCORE.RESTR>
0

>  <SCORE.RESTR.CAVITY>
0

>  <SCORE.RESTR.norm>
0

>  <SCORE.SYSTEM>
0

>  <SCORE.SYSTEM.CONST>
0

>  <SCORE.SYSTEM.DIHEDRAL>
0

>  <SCORE.SYSTEM.SOLV>
0

>  <SCORE.SYSTEM.norm>
0

>  <SCORE.heavy>
49

>  <SCORE.norm>
-0.168359

>  <RMSD>
8.061

$$$$
ligand
 OpenBabel11021811513D
libRbt.so/2013.1/901 2013/11/27
 49 52  0  0  0  0  0  0  0  0999 V2000
   26.8453   11.4103    8.7919 C   0  0  2  0  0  0  0  0  0  0  0  0
   28.1867   11.0699    8.6007 O   0  0  0  0  0  0  0  0  0  0  0  0
   26.4937   11.3426   10.3246 C   0  0  2  0  0  0  0  0  0  0  0  0
   27.3971   12.2999   11.0860 N   0  0  0  0  0  0  0  0  0  0  0  0
   30.9208    9.7086    3.7119 O   0  0  0  0  0  0  0  0  0  0  0  0
   26.6384    9.8941   10.8470 C   0  0  2  0  0  0  0  0  0  0  0  0
   35.4745    8.5357    1.0902 N   0  0  0  0  0  0  0  0  0  0  0  0
   25.7318    8.9432   10.0499 C   0  0  2  0  0  0  0  0  0  0  0  0
   26.0562    8.9855    8.4967 C   0  0  2  0  0  0  0  0  0  0  0  0
   25.9530   10.4411    8.0374 O   0  0  0  0  0  0  0  0  0  0  0  0
   25.0977    8.0624    7.6898 C   0  0  0  0  0  0  0  0  0  0  0  0
   25.0138    6.7396    8.1969 N   0  0  0  0  0  0  0  0  0  0  0  0
   30.9249   12.0840    5.3949 C   0  0  2  0  0  0  0  0  0  0  0  0
   31.8396   11.9055    4.2294 N   0  0  0  0  0  0  0  0  0  0  0  0
   31.3134   10.9601    6.4730 C   0  0  0  0  0  0  0  0  0  0  0  0
   30.4077   11.0920    7.7538 C   0  0  2  0  0  0  0  0  0  0  0  0
   30.7405   10.0546    8.7413 N   0  0  0  0  0  0  0  0  0  0  0  0
   28.9212   10.9384    7.3747 C   0  0  2  0  0  0  0  0  0  0  0  0
   28.5058   12.0307    6.3082 C   0  0  2  0  0  0  0  0  0  0  0  0
   27.0757   11.8048    6.0198 O   0  0  0  0  0  0  0  0  0  0  0  0
   29.4027   11.8322    4.9824 C   0  0  1  0  0  0  0  0  0  0  0  0
   29.0171   12.7964    4.0544 O   0  0  0  0  0  0  0  0  0  0  0  0
   26.5539   11.4830    4.8854 C   0  0  1  0  0  0  0  0  0  0  0  0
   26.9341   10.0739    4.3427 C   0  0  2  0  0  0  0  0  0  0  0  0
   28.0674   10.2088    3.5444 O   0  0  0  0  0  0  0  0  0  0  0  0
   25.7290    9.8171    3.5366 C   0  0  1  0  0  0  0  0  0  0  0  0
   24.4951   10.3633    4.3194 C   0  0  2  0  0  0  0  0  0  0  0  0
   25.0901   11.5235    4.8470 O   0  0  0  0  0  0  0  0  0  0  0  0
   23.7832    9.4236    5.2936 C   0  0  0  0  0  0  0  0  0  0  0  0
   23.4877    8.2471    4.5647 O   0  0  0  0  0  0  0  0  0  0  0  0
   25.0094   10.3225    1.2452 C   0  0  2  0  0  0  0  0  0  0  0  0
   25.9392   10.5136    2.2263 O   0  0  0  0  0  0  0  0  0  0  0  0
   25.1857    9.0047    0.5498 C   0  0  1  0  0  0  0  0  0  0  0  0
   25.2318   12.3926   -2.9799 N   0  0  0  0  0  0  0  0  0  0  0  0
   33.5927   11.7434    2.2588 O   0  0  0  0  0  0  0  0  0  0  0  0
   24.1142    8.8731   -0.6011 C   0  0  2  0  0  0  0  0  0  0  0  0
   24.1688   10.0389   -1.6483 C   0  0  1  0  0  0  0  0  0  0  0  0
   23.9873   11.2940   -0.9576 C   0  0  1  0  0  0  0  0  0  0  0  0
   25.0065   11.4451    0.1558 O   0  0  0  0  0  0  0  0  0  0  0  0
   24.0795   12.5116   -1.9783 C   0  0  0  0  0  0  0  0  0  0  0  0
   26.4661    8.9350   -0.0350 N   0  0  0  0  0  0  0  0  0  0  0  0
   26.3390    9.8638   11.9496 O   0  0  0  0  0  0  0  0  0  0  0  0
   33.4871    9.4777    2.3830 C   0  0  0  0  0  0  0  0  0  0  0  0
   25.2050   10.0329   -2.1421 O   0  0  0  0  0  0  0  0  0  0  0  0
   23.0687    8.9067   -0.1226 O   0  0  0  0  0  0  0  0  0  0  0  0
   31.7192   10.6228    3.4618 C   0  0  0  0  0  0  0  0  0  0  0  0
   34.3750    9.3986    1.3335 C   0  0  0  0  0  0  0  0  0  0  0  0
   32.7621   10.5847    2.2279 C   0  0  1  0  0  0  0  0  0  0  0  0
   24.3847    9.3058   10.2261 F   0  0  0  0  0  0  0  0  0  0  0  0
  1  2  1  1  0  0  0
  1 10  1  0  0  0  0
  1  3  1  0  0  0  0
  3  4  1  1  0  0  0
  3  6  1  0  0  0  0
  5 46  2  0  0  0  0
  6 42  1  1  0  0  0
  6  8  1  0  0  0  0
  7 47  1  0  0  0  0
  8  9  1  0  0  0  0
  8 49  1  6  0  0  0
  9 10  1  0  0  0  0
  9 11  1  6  0  0  0
 11 12  1  0  0  0  0
 13 14  1  6  0  0  0
 13 15  1  0  0  0  0
 13 21  1  0  0  0  0
 14 46  1  0  0  0  0
 15 16  1  0  0  0  0
 16 17  1  1  0  0  0
 16 18  1  0  0  0  0
 18  2  1  1  0  0  0
 18 19  1  0  0  0  0
 19 20  1  6  0  0  0
 19 21  1  0  0  0  0
 21 22  1  6  0  0  0
 23 20  1  1  0  0  0
 23 24  1  0  0  0  0
 23 28  1  0  0  0  0
 24 25  1  6  0  0  0
 24 26  1  0  0  0  0
 26 27  1  0  0  0  0
 26 32  1  6  0  0  0
 27 28  1  0  0  0  0
 27 29  1  1  0  0  0
 29 30  1  0  0  0  0
 31 32  1  1  0  0  0
 31 33  1  0  0  0  0
 31 39  1  0  0  0  0
 33 36  1  0  0  0  0
 33 41  1  6  0  0  0
 34 40  1  0  0  0  0
 35 48  1  0  0  0  0
 36 37  1  0  0  0  0
 36 45  1  1  0  0  0
 37 38  1  0  0  0  0
 37 44  1  1  0  0  0
 38 39  1  0  0  0  0
 38 40  1  6  0  0  0
 43 47  1  0  0  0  0
 46 48  1  0  0  0  0
 48 43  1  1  0  0  0
M  END
>  <CHROM.1>
176.84650390,158.60064650,-51.12480811,64.42434040,-117.86172444,66.13453562
173.93616719,-52.35229026,-78.57093976,-43.96922690,170.95632487,-61.60072344
-176.51638077,27.43290981,10.39054775,4.52987823,1.47127251,0.09499832,1.59516559

>  <Name>
ligand

>  <RI>
0

>  <Rbt.Current_Directory>
/home/itssahil/PROJECTS/Mol_Feturizer/New_Systems/rnas/4PDQ

>  <Rbt.Executable>
rbdock ($Id: //depot/dev/client3/rdock/2013.1/src/exe/rbdock.cxx#4 $)

>  <Rbt.Library>
libRbt.so (2013.1, Build901 2013/11/27)

>  <Rbt.Parameter_File>
/export/apps/rDock/src/rDock_2013.1_src/data/scripts/dock_solv.prm

>  <Rbt.Receptor>
prm/pocket_docking_2.prm

>  <SCORE>
1.57259

>  <SCORE.INTER>
-1.08918

>  <SCORE.INTER.CONST>
1

>  <SCORE.INTER.POLAR>
0

>  <SCORE.INTER.ROT>
13

>  <SCORE.INTER.SOLV>
22.6413

>  <SCORE.INTER.VDW>
-20.5399

>  <SCORE.INTER.norm>
-0.0222282

>  <SCORE.INTRA>
-3.12744

>  <SCORE.INTRA.DIHEDRAL>
-19.1458

>  <SCORE.INTRA.DIHEDRAL.0>
34.5115

>  <SCORE.INTRA.POLAR>
0

>  <SCORE.INTRA.POLAR.0>
0

>  <SCORE.INTRA.REPUL>
0

>  <SCORE.INTRA.REPUL.0>
0

>  <SCORE.INTRA.SOLV>
0.117147

>  <SCORE.INTRA.SOLV.lig_0>
-122.812

>  <SCORE.INTRA.VDW>
6.38686

>  <SCORE.INTRA.VDW.0>
-7.46208

>  <SCORE.INTRA.norm>
-0.0638253

>  <SCORE.RESTR>
5.78922

>  <SCORE.RESTR.CAVITY>
5.78922

>  <SCORE.RESTR.norm>
0.118147

>  <SCORE.SYSTEM>
0

>  <SCORE.SYSTEM.CONST>
0

>  <SCORE.SYSTEM.DIHEDRAL>
0

>  <SCORE.SYSTEM.SOLV>
0

>  <SCORE.SYSTEM.norm>
0

>  <SCORE.heavy>
49

>  <SCORE.norm>
0.0320937

>  <RMSD>
8.104

$$$$
ligand
 OpenBabel11021811513D
libRbt.so/2013.1/901 2013/11/27
 49 52  0  0  0  0  0  0  0  0999 V2000
   27.3972   10.7706    7.9869 C   0  0  2  0  0  0  0  0  0  0  0  0
   27.8596    9.7735    7.1244 O   0  0  0  0  0  0  0  0  0  0  0  0
   28.2279   10.7436    9.3235 C   0  0  2  0  0  0  0  0  0  0  0  0
   29.6980   10.9614    9.0012 N   0  0  0  0  0  0  0  0  0  0  0  0
   31.0268    9.4955    2.3176 O   0  0  0  0  0  0  0  0  0  0  0  0
   28.0057    9.4068   10.0689 C   0  0  2  0  0  0  0  0  0  0  0  0
   35.4393    8.4687    0.9837 N   0  0  0  0  0  0  0  0  0  0  0  0
   26.5121    9.1998   10.3656 C   0  0  2  0  0  0  0  0  0  0  0  0
   25.6403    9.2230    9.0393 C   0  0  2  0  0  0  0  0  0  0  0  0
   25.9327   10.5361    8.3109 O   0  0  0  0  0  0  0  0  0  0  0  0
   24.1238    9.0686    9.3523 C   0  0  0  0  0  0  0  0  0  0  0  0
   23.3369    8.7262    8.2220 N   0  0  0  0  0  0  0  0  0  0  0  0
   31.1827   11.1540    4.7050 C   0  0  2  0  0  0  0  0  0  0  0  0
   32.2173   11.1687    3.6296 N   0  0  0  0  0  0  0  0  0  0  0  0
   31.2035    9.6872    5.3564 C   0  0  0  0  0  0  0  0  0  0  0  0
   30.1522    9.5904    6.5242 C   0  0  2  0  0  0  0  0  0  0  0  0
   30.1474    8.2445    7.1161 N   0  0  0  0  0  0  0  0  0  0  0  0
   28.7359    9.8897    5.9938 C   0  0  2  0  0  0  0  0  0  0  0  0
   28.6818   11.3294    5.3401 C   0  0  2  0  0  0  0  0  0  0  0  0
   27.2941   11.5206    4.8743 O   0  0  0  0  0  0  0  0  0  0  0  0
   29.7196   11.3811    4.1065 C   0  0  1  0  0  0  0  0  0  0  0  0
   29.6514   12.6518    3.5405 O   0  0  0  0  0  0  0  0  0  0  0  0
   26.8158   11.2192    3.7153 C   0  0  1  0  0  0  0  0  0  0  0  0
   27.4417    9.9683    3.0310 C   0  0  2  0  0  0  0  0  0  0  0  0
   28.5103   10.3939    2.2456 O   0  0  0  0  0  0  0  0  0  0  0  0
   26.2880    9.5684    2.2082 C   0  0  1  0  0  0  0  0  0  0  0  0
   24.9921    9.7906    3.0477 C   0  0  2  0  0  0  0  0  0  0  0  0
   25.3701   10.9848    3.6875 O   0  0  0  0  0  0  0  0  0  0  0  0
   24.4929    8.6414    3.9246 C   0  0  0  0  0  0  0  0  0  0  0  0
   25.5048    8.4081    4.8860 O   0  0  0  0  0  0  0  0  0  0  0  0
   25.1832   10.5529    0.2503 C   0  0  2  0  0  0  0  0  0  0  0  0
   26.3325   10.4179    0.9743 O   0  0  0  0  0  0  0  0  0  0  0  0
   24.8106    9.2842   -0.4587 C   0  0  1  0  0  0  0  0  0  0  0  0
   24.9432   14.3030   -2.0774 N   0  0  0  0  0  0  0  0  0  0  0  0
   32.9911   11.5594    0.5872 O   0  0  0  0  0  0  0  0  0  0  0  0
   23.5064    9.5261   -1.3134 C   0  0  2  0  0  0  0  0  0  0  0  0
   23.6408   10.6950   -2.3498 C   0  0  1  0  0  0  0  0  0  0  0  0
   23.9896   11.9055   -1.6436 C   0  0  1  0  0  0  0  0  0  0  0  0
   25.2419   11.6990   -0.8128 O   0  0  0  0  0  0  0  0  0  0  0  0
   24.1799   13.1121   -2.6639 C   0  0  0  0  0  0  0  0  0  0  0  0
   25.8440    8.9008   -1.3371 N   0  0  0  0  0  0  0  0  0  0  0  0
   28.5857    9.4280   11.0535 O   0  0  0  0  0  0  0  0  0  0  0  0
   34.3211   10.4822    2.0808 C   0  0  0  0  0  0  0  0  0  0  0  0
   24.4865   10.4344   -3.0809 O   0  0  0  0  0  0  0  0  0  0  0  0
   22.6563    9.8167   -0.5950 O   0  0  0  0  0  0  0  0  0  0  0  0
   31.9969   10.2529    2.4628 C   0  0  0  0  0  0  0  0  0  0  0  0
   34.9374    9.2512    2.0554 C   0  0  0  0  0  0  0  0  0  0  0  0
   33.1902   10.3923    1.3820 C   0  0  1  0  0  0  0  0  0  0  0  0
   26.0464   10.2202   11.2137 F   0  0  0  0  0  0  0  0  0  0  0  0
  1  2  1  6  0  0  0
  1 10  1  0  0  0  0
  1  3  1  0  0  0  0
  3  4  1  6  0  0  0
  3  6  1  0  0  0  0
  5 46  2  0  0  0  0
  6 42  1  1  0  0  0
  6  8  1  0  0  0  0
  7 47  1  0  0  0  0
  8  9  1  0  0  0  0
  8 49  1  1  0  0  0
  9 10  1  0  0  0  0
  9 11  1  1  0  0  0
 11 12  1  0  0  0  0
 13 14  1  6  0  0  0
 13 15  1  0  0  0  0
 13 21  1  0  0  0  0
 14 46  1  0  0  0  0
 15 16  1  0  0  0  0
 16 17  1  6  0  0  0
 16 18  1  0  0  0  0
 18  2  1  1  0  0  0
 18 19  1  0  0  0  0
 19 20  1  6  0  0  0
 19 21  1  0  0  0  0
 21 22  1  1  0  0  0
 23 20  1  1  0  0  0
 23 24  1  0  0  0  0
 23 28  1  0  0  0  0
 24 25  1  6  0  0  0
 24 26  1  0  0  0  0
 26 27  1  0  0  0  0
 26 32  1  6  0  0  0
 27 28  1  0  0  0  0
 27 29  1  1  0  0  0
 29 30  1  0  0  0  0
 31 32  1  6  0  0  0
 31 33  1  0  0  0  0
 31 39  1  0  0  0  0
 33 36  1  0  0  0  0
 33 41  1  6  0  0  0
 34 40  1  0  0  0  0
 35 48  1  0  0  0  0
 36 37  1  0  0  0  0
 36 45  1  1  0  0  0
 37 38  1  0  0  0  0
 37 44  1  6  0  0  0
 38 39  1  0  0  0  0
 38 40  1  6  0  0  0
 43 47  1  0  0  0  0
 46 48  1  0  0  0  0
 48 43  1  1  0  0  0
M  END
>  <CHROM.1>
-100.68198232,94.39772092,-164.08311204,64.06577412,-90.18447934,32.86931107
-160.05926881,62.97614165,-70.49121395,-162.68761131,61.44334134,-139.30456533
100.11293229,27.69572515,10.29839303,3.81723779,1.32540578,0.00012331,1.68256238

>  <Name>
ligand

>  <RI>
0

>  <Rbt.Current_Directory>
/home/itssahil/PROJECTS/Mol_Feturizer/New_Systems/rnas/4PDQ

>  <Rbt.Executable>
rbdock ($Id: //depot/dev/client3/rdock/2013.1/src/exe/rbdock.cxx#4 $)

>  <Rbt.Library>
libRbt.so (2013.1, Build901 2013/11/27)

>  <Rbt.Parameter_File>
/export/apps/rDock/src/rDock_2013.1_src/data/scripts/dock_solv.prm

>  <Rbt.Receptor>
prm/pocket_docking_2.prm

>  <SCORE>
20.0808

>  <SCORE.INTER>
11.4387

>  <SCORE.INTER.CONST>
1

>  <SCORE.INTER.POLAR>
0

>  <SCORE.INTER.ROT>
13

>  <SCORE.INTER.SOLV>
26.53

>  <SCORE.INTER.VDW>
-13.4842

>  <SCORE.INTER.norm>
0.233443

>  <SCORE.INTRA>
4.42764

>  <SCORE.INTRA.DIHEDRAL>
-8.4781

>  <SCORE.INTRA.DIHEDRAL.0>
34.5115

>  <SCORE.INTRA.POLAR>
0

>  <SCORE.INTRA.POLAR.0>
0

>  <SCORE.INTRA.REPUL>
0.0185591

>  <SCORE.INTRA.REPUL.0>
0

>  <SCORE.INTRA.SOLV>
3.36748

>  <SCORE.INTRA.SOLV.lig_0>
-122.812

>  <SCORE.INTRA.VDW>
6.89015

>  <SCORE.INTRA.VDW.0>
-7.46208

>  <SCORE.INTRA.norm>
0.0903599

>  <SCORE.RESTR>
4.21449

>  <SCORE.RESTR.CAVITY>
4.21449

>  <SCORE.RESTR.norm>
0.08601

>  <SCORE.SYSTEM>
0

>  <SCORE.SYSTEM.CONST>
0

>  <SCORE.SYSTEM.DIHEDRAL>
0

>  <SCORE.SYSTEM.SOLV>
0

>  <SCORE.SYSTEM.norm>
0

>  <SCORE.heavy>
49

>  <SCORE.norm>
0.409813

>  <RMSD>
8.186

$$$$
ligand
 OpenBabel11021811513D
libRbt.so/2013.1/901 2013/11/27
 49 52  0  0  0  0  0  0  0  0999 V2000
   24.8643    9.7104    1.7153 C   0  0  2  0  0  0  0  0  0  0  0  0
   26.0710    9.3149    2.2979 O   0  0  0  0  0  0  0  0  0  0  0  0
   24.4066    8.6356    0.6606 C   0  0  2  0  0  0  0  0  0  0  0  0
   24.2444    7.2927    1.3556 N   0  0  0  0  0  0  0  0  0  0  0  0
   25.0511   11.6150    8.3984 O   0  0  0  0  0  0  0  0  0  0  0  0
   25.4258    8.5511   -0.4995 C   0  0  2  0  0  0  0  0  0  0  0  0
   26.3447   12.0607   13.3129 N   0  0  0  0  0  0  0  0  0  0  0  0
   25.5872    9.9231   -1.1728 C   0  0  2  0  0  0  0  0  0  0  0  0
   26.0471   11.0355   -0.1380 C   0  0  2  0  0  0  0  0  0  0  0  0
   25.0413   11.0455    1.0147 O   0  0  0  0  0  0  0  0  0  0  0  0
   26.1546   12.4326   -0.8148 C   0  0  0  0  0  0  0  0  0  0  0  0
   24.9286   12.9063   -1.3503 N   0  0  0  0  0  0  0  0  0  0  0  0
   26.6229   11.5894    5.9482 C   0  0  2  0  0  0  0  0  0  0  0  0
   27.1791   11.9927    7.2730 N   0  0  0  0  0  0  0  0  0  0  0  0
   26.3762   10.0044    6.0056 C   0  0  0  0  0  0  0  0  0  0  0  0
   25.7631    9.4950    4.6480 C   0  0  2  0  0  0  0  0  0  0  0  0
   25.5512    8.0404    4.6807 N   0  0  0  0  0  0  0  0  0  0  0  0
   26.7139    9.8182    3.4782 C   0  0  2  0  0  0  0  0  0  0  0  0
   26.9819   11.3752    3.3960 C   0  0  2  0  0  0  0  0  0  0  0  0
   27.8893   11.5791    2.2495 O   0  0  0  0  0  0  0  0  0  0  0  0
   27.6694   11.8592    4.7724 C   0  0  1  0  0  0  0  0  0  0  0  0
   27.9040   13.2287    4.6772 O   0  0  0  0  0  0  0  0  0  0  0  0
   29.0869   11.1202    2.1162 C   0  0  1  0  0  0  0  0  0  0  0  0
   30.0973   11.5376    3.2251 C   0  0  2  0  0  0  0  0  0  0  0  0
   30.7276   12.7107    2.8171 O   0  0  0  0  0  0  0  0  0  0  0  0
   31.0018   10.3785    3.1448 C   0  0  1  0  0  0  0  0  0  0  0  0
   30.1362    9.1015    2.9140 C   0  0  2  0  0  0  0  0  0  0  0  0
   29.1827    9.6604    2.0439 O   0  0  0  0  0  0  0  0  0  0  0  0
   29.6227    8.3449    4.1399 C   0  0  0  0  0  0  0  0  0  0  0  0
   29.0847    9.3214    5.0115 O   0  0  0  0  0  0  0  0  0  0  0  0
   33.2253   10.1970    2.1216 C   0  0  2  0  0  0  0  0  0  0  0  0
   31.9435   10.6535    2.0116 O   0  0  0  0  0  0  0  0  0  0  0  0
   34.1201   10.7667    1.0606 C   0  0  1  0  0  0  0  0  0  0  0  0
   33.6260    5.8515    3.0173 N   0  0  0  0  0  0  0  0  0  0  0  0
   27.4307   13.7584    9.6894 O   0  0  0  0  0  0  0  0  0  0  0  0
   35.5682   10.1593    1.2159 C   0  0  2  0  0  0  0  0  0  0  0  0
   35.6034    8.5928    1.1568 C   0  0  1  0  0  0  0  0  0  0  0  0
   34.7437    8.0685    2.1920 C   0  0  1  0  0  0  0  0  0  0  0  0
   33.3435    8.6381    2.0650 O   0  0  0  0  0  0  0  0  0  0  0  0
   34.7144    6.4780    2.1411 C   0  0  0  0  0  0  0  0  0  0  0  0
   33.6356   10.4203   -0.2167 N   0  0  0  0  0  0  0  0  0  0  0  0
   25.0512    7.7951   -1.2706 O   0  0  0  0  0  0  0  0  0  0  0  0
   26.0990   12.2783   10.7829 C   0  0  0  0  0  0  0  0  0  0  0  0
   35.2000    8.2605    0.1349 O   0  0  0  0  0  0  0  0  0  0  0  0
   35.9741   10.4608    2.2492 O   0  0  0  0  0  0  0  0  0  0  0  0
   26.2412   11.9574    8.4426 C   0  0  0  0  0  0  0  0  0  0  0  0
   26.7782   12.2850   11.9808 C   0  0  0  0  0  0  0  0  0  0  0  0
   26.9912   12.4065    9.8017 C   0  0  1  0  0  0  0  0  0  0  0  0
   24.3637   10.3274   -1.7356 F   0  0  0  0  0  0  0  0  0  0  0  0
  1  2  1  6  0  0  0
  1 10  1  0  0  0  0
  1  3  1  0  0  0  0
  3  4  1  1  0  0  0
  3  6  1  0  0  0  0
  5 46  2  0  0  0  0
  6 42  1  6  0  0  0
  6  8  1  0  0  0  0
  7 47  1  0  0  0  0
  8  9  1  0  0  0  0
  8 49  1  1  0  0  0
  9 10  1  0  0  0  0
  9 11  1  6  0  0  0
 11 12  1  0  0  0  0
 13 14  1  1  0  0  0
 13 15  1  0  0  0  0
 13 21  1  0  0  0  0
 14 46  1  0  0  0  0
 15 16  1  0  0  0  0
 16 17  1  1  0  0  0
 16 18  1  0  0  0  0
 18  2  1  6  0  0  0
 18 19  1  0  0  0  0
 19 20  1  6  0  0  0
 19 21  1  0  0  0  0
 21 22  1  6  0  0  0
 23 20  1  1  0  0  0
 23 24  1  0  0  0  0
 23 28  1  0  0  0  0
 24 25  1  6  0  0  0
 24 26  1  0  0  0  0
 26 27  1  0  0  0  0
 26 32  1  6  0  0  0
 27 28  1  0  0  0  0
 27 29  1  1  0  0  0
 29 30  1  0  0  0  0
 31 32  1  6  0  0  0
 31 33  1  0  0  0  0
 31 39  1  0  0  0  0
 33 36  1  0  0  0  0
 33 41  1  6  0  0  0
 34 40  1  0  0  0  0
 35 48  1  0  0  0  0
 36 37  1  0  0  0  0
 36 45  1  1  0  0  0
 37 38  1  0  0  0  0
 37 44  1  6  0  0  0
 38 39  1  0  0  0  0
 38 40  1  6  0  0  0
 43 47  1  0  0  0  0
 46 48  1  0  0  0  0
 48 43  1  1  0  0  0
M  END
>  <CHROM.1>
-165.75698634,63.77544446,61.20574772,-70.85156676,-62.29266904,-58.28094745
146.06374850,46.95920269,-168.70703456,-168.72021296,-173.41823496,-77.11091296
-117.93340590,28.69185322,10.31555894,3.31124117,2.36418268,-0.12204334,1.33634722

>  <Name>
ligand

>  <RI>
0

>  <Rbt.Current_Directory>
/home/itssahil/PROJECTS/Mol_Feturizer/New_Systems/rnas/4PDQ

>  <Rbt.Executable>
rbdock ($Id: //depot/dev/client3/rdock/2013.1/src/exe/rbdock.cxx#4 $)

>  <Rbt.Library>
libRbt.so (2013.1, Build901 2013/11/27)

>  <Rbt.Parameter_File>
/export/apps/rDock/src/rDock_2013.1_src/data/scripts/dock_solv.prm

>  <Rbt.Receptor>
prm/pocket_docking_4.prm

>  <SCORE>
-11.2403

>  <SCORE.INTER>
-1.28418

>  <SCORE.INTER.CONST>
1

>  <SCORE.INTER.POLAR>
0

>  <SCORE.INTER.ROT>
13

>  <SCORE.INTER.SOLV>
23.1647

>  <SCORE.INTER.VDW>
-20.8444

>  <SCORE.INTER.norm>
-0.0262078

>  <SCORE.INTRA>
-10.019

>  <SCORE.INTRA.DIHEDRAL>
-25.345

>  <SCORE.INTRA.DIHEDRAL.0>
34.5115

>  <SCORE.INTRA.POLAR>
0

>  <SCORE.INTRA.POLAR.0>
0

>  <SCORE.INTRA.REPUL>
0

>  <SCORE.INTRA.REPUL.0>
0

>  <SCORE.INTRA.SOLV>
0.922235

>  <SCORE.INTRA.SOLV.lig_0>
-122.812

>  <SCORE.INTRA.VDW>
2.1924

>  <SCORE.INTRA.VDW.0>
-7.46208

>  <SCORE.INTRA.norm>
-0.204469

>  <SCORE.RESTR>
0.0628147

>  <SCORE.RESTR.CAVITY>
0.0628147

>  <SCORE.RESTR.norm>
0.00128193

>  <SCORE.SYSTEM>
0

>  <SCORE.SYSTEM.CONST>
0

>  <SCORE.SYSTEM.DIHEDRAL>
0

>  <SCORE.SYSTEM.SOLV>
0

>  <SCORE.SYSTEM.norm>
0

>  <SCORE.heavy>
49

>  <SCORE.norm>
-0.229395

>  <RMSD>
8.192

$$$$
ligand
 OpenBabel11021811513D
libRbt.so/2013.1/901 2013/11/27
 49 52  0  0  0  0  0  0  0  0999 V2000
   34.4454    8.8189    0.1955 C   0  0  2  0  0  0  0  0  0  0  0  0
   33.6219    9.5723    1.0359 O   0  0  0  0  0  0  0  0  0  0  0  0
   34.3651    7.2991    0.5967 C   0  0  2  0  0  0  0  0  0  0  0  0
   32.9230    6.8297    0.4854 N   0  0  0  0  0  0  0  0  0  0  0  0
   27.8919    9.3104    0.6283 O   0  0  0  0  0  0  0  0  0  0  0  0
   34.9182    7.0892    2.0256 C   0  0  2  0  0  0  0  0  0  0  0  0
   23.7450    9.8850   -1.6638 N   0  0  0  0  0  0  0  0  0  0  0  0
   36.3685    7.5887    2.1184 C   0  0  2  0  0  0  0  0  0  0  0  0
   36.4898    9.1201    1.7185 C   0  0  2  0  0  0  0  0  0  0  0  0
   35.8835    9.2882    0.3241 O   0  0  0  0  0  0  0  0  0  0  0  0
   37.9682    9.6040    1.7610 C   0  0  0  0  0  0  0  0  0  0  0  0
   38.7924    9.0173    0.7658 N   0  0  0  0  0  0  0  0  0  0  0  0
   29.7682   11.5344    0.7164 C   0  0  2  0  0  0  0  0  0  0  0  0
   28.3027   11.7086    0.4950 N   0  0  0  0  0  0  0  0  0  0  0  0
   30.3188   10.6204   -0.4827 C   0  0  0  0  0  0  0  0  0  0  0  0
   31.8718   10.4051   -0.3401 C   0  0  2  0  0  0  0  0  0  0  0  0
   32.3851    9.5521   -1.4221 N   0  0  0  0  0  0  0  0  0  0  0  0
   32.1952    9.7253    1.0053 C   0  0  2  0  0  0  0  0  0  0  0  0
   31.6612   10.6000    2.2106 C   0  0  2  0  0  0  0  0  0  0  0  0
   32.0244    9.8726    3.4428 O   0  0  0  0  0  0  0  0  0  0  0  0
   30.0609   10.7503    2.0766 C   0  0  1  0  0  0  0  0  0  0  0  0
   29.6098   11.5156    3.1493 O   0  0  0  0  0  0  0  0  0  0  0  0
   31.3864    8.8894    3.9804 C   0  0  1  0  0  0  0  0  0  0  0  0
   32.2085    7.5832    4.1867 C   0  0  2  0  0  0  0  0  0  0  0  0
   32.0517    6.7894    3.0530 O   0  0  0  0  0  0  0  0  0  0  0  0
   31.4693    7.0386    5.3378 C   0  0  1  0  0  0  0  0  0  0  0  0
   31.0936    8.2243    6.2793 C   0  0  2  0  0  0  0  0  0  0  0  0
   30.7978    9.1796    5.2901 O   0  0  0  0  0  0  0  0  0  0  0  0
   32.0844    8.6192    7.3752 C   0  0  0  0  0  0  0  0  0  0  0  0
   31.4790    9.6771    8.0943 O   0  0  0  0  0  0  0  0  0  0  0  0
   29.2783    7.1072    4.2340 C   0  0  2  0  0  0  0  0  0  0  0  0
   30.2677    6.3396    4.7776 O   0  0  0  0  0  0  0  0  0  0  0  0
   28.3758    7.6894    5.2817 C   0  0  1  0  0  0  0  0  0  0  0  0
   27.3245    5.6964    0.3763 N   0  0  0  0  0  0  0  0  0  0  0  0
   25.4949   11.8278    1.1531 O   0  0  0  0  0  0  0  0  0  0  0  0
   27.2300    8.5192    4.5828 C   0  0  2  0  0  0  0  0  0  0  0  0
   26.3860    7.6865    3.5566 C   0  0  1  0  0  0  0  0  0  0  0  0
   27.2738    7.1454    2.5543 C   0  0  1  0  0  0  0  0  0  0  0  0
   28.3863    6.3423    3.2013 O   0  0  0  0  0  0  0  0  0  0  0  0
   26.4640    6.2542    1.5136 C   0  0  0  0  0  0  0  0  0  0  0  0
   27.7742    6.6567    6.0286 N   0  0  0  0  0  0  0  0  0  0  0  0
   34.8870    5.9748    2.2775 O   0  0  0  0  0  0  0  0  0  0  0  0
   25.8049   11.2458   -1.0206 C   0  0  0  0  0  0  0  0  0  0  0  0
   25.8871    6.8189    4.1187 O   0  0  0  0  0  0  0  0  0  0  0  0
   27.7184    9.3764    3.9913 O   0  0  0  0  0  0  0  0  0  0  0  0
   27.4668   10.4638    0.4717 C   0  0  0  0  0  0  0  0  0  0  0  0
   24.5032   11.0612   -1.4299 C   0  0  0  0  0  0  0  0  0  0  0  0
   25.9073   10.8163    0.2365 C   0  0  1  0  0  0  0  0  0  0  0  0
   37.1880    6.8437    1.2521 F   0  0  0  0  0  0  0  0  0  0  0  0
  1  2  1  1  0  0  0
  1 10  1  0  0  0  0
  1  3  1  0  0  0  0
  3  4  1  1  0  0  0
  3  6  1  0  0  0  0
  5 46  2  0  0  0  0
  6 42  1  6  0  0  0
  6  8  1  0  0  0  0
  7 47  1  0  0  0  0
  8  9  1  0  0  0  0
  8 49  1  6  0  0  0
  9 10  1  0  0  0  0
  9 11  1  6  0  0  0
 11 12  1  0  0  0  0
 13 14  1  6  0  0  0
 13 15  1  0  0  0  0
 13 21  1  0  0  0  0
 14 46  1  0  0  0  0
 15 16  1  0  0  0  0
 16 17  1  6  0  0  0
 16 18  1  0  0  0  0
 18  2  1  1  0  0  0
 18 19  1  0  0  0  0
 19 20  1  1  0  0  0
 19 21  1  0  0  0  0
 21 22  1  1  0  0  0
 23 20  1  1  0  0  0
 23 24  1  0  0  0  0
 23 28  1  0  0  0  0
 24 25  1  6  0  0  0
 24 26  1  0  0  0  0
 26 27  1  0  0  0  0
 26 32  1  6  0  0  0
 27 28  1  0  0  0  0
 27 29  1  1  0  0  0
 29 30  1  0  0  0  0
 31 32  1  1  0  0  0
 31 33  1  0  0  0  0
 31 39  1  0  0  0  0
 33 36  1  0  0  0  0
 33 41  1  6  0  0  0
 34 40  1  0  0  0  0
 35 48  1  0  0  0  0
 36 37  1  0  0  0  0
 36 45  1  6  0  0  0
 37 38  1  0  0  0  0
 37 44  1  1  0  0  0
 38 39  1  0  0  0  0
 38 40  1  6  0  0  0
 43 47  1  0  0  0  0
 46 48  1  0  0  0  0
 48 43  1  6  0  0  0
M  END
>  <CHROM.1>
-77.75035293,-63.21121253,67.51582384,60.06619017,-82.06945739,123.08072881
-70.16372904,-178.17717108,-80.46952687,177.22298618,-67.04592561,-83.70468832
128.71538389,30.68202204,8.74831696,2.30136717,-0.07383285,0.09079846,-1.14251900

>  <Name>
ligand

>  <RI>
0

>  <Rbt.Current_Directory>
/home/itssahil/PROJECTS/Mol_Feturizer/New_Systems/rnas/4PDQ

>  <Rbt.Executable>
rbdock ($Id: //depot/dev/client3/rdock/2013.1/src/exe/rbdock.cxx#4 $)

>  <Rbt.Library>
libRbt.so (2013.1, Build901 2013/11/27)

>  <Rbt.Parameter_File>
/export/apps/rDock/src/rDock_2013.1_src/data/scripts/dock_solv.prm

>  <Rbt.Receptor>
prm/pocket_docking_5.prm

>  <SCORE>
-5.62989

>  <SCORE.INTER>
-2.83484

>  <SCORE.INTER.CONST>
1

>  <SCORE.INTER.POLAR>
0

>  <SCORE.INTER.ROT>
13

>  <SCORE.INTER.SOLV>
13.8318

>  <SCORE.INTER.VDW>
-18.7672

>  <SCORE.INTER.norm>
-0.057854

>  <SCORE.INTRA>
-2.81407

>  <SCORE.INTRA.DIHEDRAL>
-18.2451

>  <SCORE.INTRA.DIHEDRAL.0>
34.5115

>  <SCORE.INTRA.POLAR>
0

>  <SCORE.INTRA.POLAR.0>
0

>  <SCORE.INTRA.REPUL>
0

>  <SCORE.INTRA.REPUL.0>
0

>  <SCORE.INTRA.SOLV>
6.87288

>  <SCORE.INTRA.SOLV.lig_0>
-122.812

>  <SCORE.INTRA.VDW>
2.87205

>  <SCORE.INTRA.VDW.0>
-7.46208

>  <SCORE.INTRA.norm>
-0.05743

>  <SCORE.RESTR>
0.0190193

>  <SCORE.RESTR.CAVITY>
0.0190193

>  <SCORE.RESTR.norm>
0.00038815

>  <SCORE.SYSTEM>
0

>  <SCORE.SYSTEM.CONST>
0

>  <SCORE.SYSTEM.DIHEDRAL>
0

>  <SCORE.SYSTEM.SOLV>
0

>  <SCORE.SYSTEM.norm>
0

>  <SCORE.heavy>
49

>  <SCORE.norm>
-0.114896

>  <RMSD>
8.231

$$$$
ligand
 OpenBabel11021811513D
libRbt.so/2013.1/901 2013/11/27
 49 52  0  0  0  0  0  0  0  0999 V2000
   29.5494    4.0166   -0.7532 C   0  0  2  0  0  0  0  0  0  0  0  0
   29.7506    5.2170   -1.4393 O   0  0  0  0  0  0  0  0  0  0  0  0
   28.0368    3.5937   -0.8557 C   0  0  2  0  0  0  0  0  0  0  0  0
   27.6615    3.4360   -2.3208 N   0  0  0  0  0  0  0  0  0  0  0  0
   36.4878    5.5745    0.0103 O   0  0  0  0  0  0  0  0  0  0  0  0
   27.1371    4.6362   -0.1517 C   0  0  2  0  0  0  0  0  0  0  0  0
   37.6968    8.0615   -4.3289 N   0  0  0  0  0  0  0  0  0  0  0  0
   27.5480    4.7924    1.3208 C   0  0  2  0  0  0  0  0  0  0  0  0
   29.0707    5.2174    1.4646 C   0  0  2  0  0  0  0  0  0  0  0  0
   29.9157    4.1894    0.7099 O   0  0  0  0  0  0  0  0  0  0  0  0
   29.4944    5.3194    2.9585 C   0  0  0  0  0  0  0  0  0  0  0  0
   29.4359    4.0853    3.6567 N   0  0  0  0  0  0  0  0  0  0  0  0
   33.9959    6.0994   -1.4001 C   0  0  2  0  0  0  0  0  0  0  0  0
   35.2948    6.7345   -1.7699 N   0  0  0  0  0  0  0  0  0  0  0  0
   33.2580    5.7076   -2.7707 C   0  0  0  0  0  0  0  0  0  0  0  0
   31.8814    5.0051   -2.4713 C   0  0  2  0  0  0  0  0  0  0  0  0
   31.1860    4.6592   -3.7198 N   0  0  0  0  0  0  0  0  0  0  0  0
   30.9698    5.9428   -1.6548 C   0  0  2  0  0  0  0  0  0  0  0  0
   31.6705    6.3523   -0.2968 C   0  0  2  0  0  0  0  0  0  0  0  0
   30.7217    7.2364    0.4085 O   0  0  0  0  0  0  0  0  0  0  0  0
   33.0448    7.1272   -0.6322 C   0  0  1  0  0  0  0  0  0  0  0  0
   33.6416    7.4856    0.5740 O   0  0  0  0  0  0  0  0  0  0  0  0
   30.1892    8.3209   -0.0424 C   0  0  1  0  0  0  0  0  0  0  0  0
   29.0199    8.9023    0.8056 C   0  0  2  0  0  0  0  0  0  0  0  0
   27.8278    8.3666    0.3240 O   0  0  0  0  0  0  0  0  0  0  0  0
   29.1663   10.3204    0.4375 C   0  0  1  0  0  0  0  0  0  0  0  0
   30.6896   10.6459    0.3531 C   0  0  2  0  0  0  0  0  0  0  0  0
   31.1213    9.4367   -0.2210 O   0  0  0  0  0  0  0  0  0  0  0  0
   31.3981   11.1235    1.6215 C   0  0  0  0  0  0  0  0  0  0  0  0
   30.6914   12.2671    2.0635 O   0  0  0  0  0  0  0  0  0  0  0  0
   27.4276   11.3803   -0.9326 C   0  0  2  0  0  0  0  0  0  0  0  0
   28.4629   10.4924   -0.8748 O   0  0  0  0  0  0  0  0  0  0  0  0
   26.2131   10.8788   -0.2083 C   0  0  1  0  0  0  0  0  0  0  0  0
   26.7262   13.6448   -4.8190 N   0  0  0  0  0  0  0  0  0  0  0  0
   38.7803    7.2025   -0.4246 O   0  0  0  0  0  0  0  0  0  0  0  0
   25.0439   11.9277   -0.3590 C   0  0  2  0  0  0  0  0  0  0  0  0
   24.6783   12.2533   -1.8487 C   0  0  1  0  0  0  0  0  0  0  0  0
   25.8588   12.7426   -2.5214 C   0  0  1  0  0  0  0  0  0  0  0  0
   26.9995   11.7511   -2.3909 O   0  0  0  0  0  0  0  0  0  0  0  0
   25.5443   13.0451   -4.0519 C   0  0  0  0  0  0  0  0  0  0  0  0
   25.7832    9.6610   -0.7725 N   0  0  0  0  0  0  0  0  0  0  0  0
   26.0502    4.2867   -0.2042 O   0  0  0  0  0  0  0  0  0  0  0  0
   38.2832    6.3947   -2.4887 C   0  0  0  0  0  0  0  0  0  0  0  0
   24.3361   11.2828   -2.3572 O   0  0  0  0  0  0  0  0  0  0  0  0
   25.3848   12.9156    0.1217 O   0  0  0  0  0  0  0  0  0  0  0  0
   36.4907    6.3653   -0.9438 C   0  0  0  0  0  0  0  0  0  0  0  0
   37.6599    6.8219   -3.6398 C   0  0  0  0  0  0  0  0  0  0  0  0
   37.8174    7.1209   -1.4732 C   0  0  1  0  0  0  0  0  0  0  0  0
   27.3671    3.5748    2.0004 F   0  0  0  0  0  0  0  0  0  0  0  0
  1  2  1  6  0  0  0
  1 10  1  0  0  0  0
  1  3  1  0  0  0  0
  3  4  1  6  0  0  0
  3  6  1  0  0  0  0
  5 46  2  0  0  0  0
  6 42  1  1  0  0  0
  6  8  1  0  0  0  0
  7 47  1  0  0  0  0
  8  9  1  0  0  0  0
  8 49  1  1  0  0  0
  9 10  1  0  0  0  0
  9 11  1  1  0  0  0
 11 12  1  0  0  0  0
 13 14  1  6  0  0  0
 13 15  1  0  0  0  0
 13 21  1  0  0  0  0
 14 46  1  0  0  0  0
 15 16  1  0  0  0  0
 16 17  1  6  0  0  0
 16 18  1  0  0  0  0
 18  2  1  1  0  0  0
 18 19  1  0  0  0  0
 19 20  1  6  0  0  0
 19 21  1  0  0  0  0
 21 22  1  1  0  0  0
 23 20  1  1  0  0  0
 23 24  1  0  0  0  0
 23 28  1  0  0  0  0
 24 25  1  6  0  0  0
 24 26  1  0  0  0  0
 26 27  1  0  0  0  0
 26 32  1  6  0  0  0
 27 28  1  0  0  0  0
 27 29  1  1  0  0  0
 29 30  1  0  0  0  0
 31 32  1  6  0  0  0
 31 33  1  0  0  0  0
 31 39  1  0  0  0  0
 33 36  1  0  0  0  0
 33 41  1  6  0  0  0
 34 40  1  0  0  0  0
 35 48  1  0  0  0  0
 36 37  1  0  0  0  0
 36 45  1  6  0  0  0
 37 38  1  0  0  0  0
 37 44  1  6  0  0  0
 38 39  1  0  0  0  0
 38 40  1  6  0  0  0
 43 47  1  0  0  0  0
 46 48  1  0  0  0  0
 48 43  1  6  0  0  0
M  END
>  <CHROM.1>
-177.30560128,62.01630763,63.83018257,-139.10226870,-55.50114330,168.64519041
120.42547745,-56.39119362,-71.70954770,176.69781207,64.72118464,-153.09405189
-23.99811499,30.22929254,7.82483058,-0.70694342,0.43393624,-0.16157306,2.85577714

>  <Name>
ligand

>  <RI>
0

>  <Rbt.Current_Directory>
/home/itssahil/PROJECTS/Mol_Feturizer/New_Systems/rnas/4PDQ

>  <Rbt.Executable>
rbdock ($Id: //depot/dev/client3/rdock/2013.1/src/exe/rbdock.cxx#4 $)

>  <Rbt.Library>
libRbt.so (2013.1, Build901 2013/11/27)

>  <Rbt.Parameter_File>
/export/apps/rDock/src/rDock_2013.1_src/data/scripts/dock_solv.prm

>  <Rbt.Receptor>
prm/pocket_docking_7.prm

>  <SCORE>
-13.9513

>  <SCORE.INTER>
-5.01975

>  <SCORE.INTER.CONST>
1

>  <SCORE.INTER.POLAR>
0

>  <SCORE.INTER.ROT>
13

>  <SCORE.INTER.SOLV>
20.0177

>  <SCORE.INTER.VDW>
-22.2857

>  <SCORE.INTER.norm>
-0.102444

>  <SCORE.INTRA>
-8.93155

>  <SCORE.INTRA.DIHEDRAL>
-21.1666

>  <SCORE.INTRA.DIHEDRAL.0>
34.5115

>  <SCORE.INTRA.POLAR>
0

>  <SCORE.INTRA.POLAR.0>
0

>  <SCORE.INTRA.REPUL>
0

>  <SCORE.INTRA.REPUL.0>
0

>  <SCORE.INTRA.SOLV>
0.889602

>  <SCORE.INTRA.SOLV.lig_0>
-122.812

>  <SCORE.INTRA.VDW>
1.20694

>  <SCORE.INTRA.VDW.0>
-7.46208

>  <SCORE.INTRA.norm>
-0.182276

>  <SCORE.RESTR>
0

>  <SCORE.RESTR.CAVITY>
0

>  <SCORE.RESTR.norm>
0

>  <SCORE.SYSTEM>
0

>  <SCORE.SYSTEM.CONST>
0

>  <SCORE.SYSTEM.DIHEDRAL>
0

>  <SCORE.SYSTEM.SOLV>
0

>  <SCORE.SYSTEM.norm>
0

>  <SCORE.heavy>
49

>  <SCORE.norm>
-0.28472

>  <RMSD>
8.252

$$$$
ligand
 OpenBabel11021811513D
libRbt.so/2013.1/901 2013/11/27
 49 52  0  0  0  0  0  0  0  0999 V2000
   26.2010    4.9326    9.3530 C   0  0  2  0  0  0  0  0  0  0  0  0
   27.2788    4.7833    8.4767 O   0  0  0  0  0  0  0  0  0  0  0  0
   26.2013    3.7574   10.4000 C   0  0  2  0  0  0  0  0  0  0  0  0
   27.5142    3.7737   11.1671 N   0  0  0  0  0  0  0  0  0  0  0  0
   32.7032    6.4862    4.9569 O   0  0  0  0  0  0  0  0  0  0  0  0
   25.9801    2.4021    9.6886 C   0  0  2  0  0  0  0  0  0  0  0  0
   29.9538    7.8534    0.9395 N   0  0  0  0  0  0  0  0  0  0  0  0
   24.6584    2.4169    8.9049 C   0  0  2  0  0  0  0  0  0  0  0  0
   24.6201    3.5921    7.8385 C   0  0  2  0  0  0  0  0  0  0  0  0
   24.8960    4.9027    8.5777 O   0  0  0  0  0  0  0  0  0  0  0  0
   23.2577    3.6353    7.0878 C   0  0  0  0  0  0  0  0  0  0  0  0
   22.9695    2.4551    6.3542 N   0  0  0  0  0  0  0  0  0  0  0  0
   30.1556    7.1130    6.2185 C   0  0  2  0  0  0  0  0  0  0  0  0
   30.7356    7.9164    5.1025 N   0  0  0  0  0  0  0  0  0  0  0  0
   29.4416    5.8369    5.5565 C   0  0  0  0  0  0  0  0  0  0  0  0
   28.8198    4.9161    6.6717 C   0  0  2  0  0  0  0  0  0  0  0  0
   28.1448    3.7534    6.0764 N   0  0  0  0  0  0  0  0  0  0  0  0
   27.7844    5.7041    7.4988 C   0  0  2  0  0  0  0  0  0  0  0  0
   28.4560    6.9733    8.1629 C   0  0  2  0  0  0  0  0  0  0  0  0
   27.3927    7.6495    8.9320 O   0  0  0  0  0  0  0  0  0  0  0  0
   29.0265    7.9311    6.9972 C   0  0  1  0  0  0  0  0  0  0  0  0
   29.6057    9.0445    7.6009 O   0  0  0  0  0  0  0  0  0  0  0  0
   27.5045    8.7303    9.6264 C   0  0  1  0  0  0  0  0  0  0  0  0
   26.1660    9.4224   10.0187 C   0  0  2  0  0  0  0  0  0  0  0  0
   25.8479   10.3446    9.0246 O   0  0  0  0  0  0  0  0  0  0  0  0
   26.6166   10.0874   11.2527 C   0  0  1  0  0  0  0  0  0  0  0  0
   27.5776    9.1159   12.0052 C   0  0  2  0  0  0  0  0  0  0  0  0
   28.2388    8.5807   10.8850 O   0  0  0  0  0  0  0  0  0  0  0  0
   26.9724    8.1343   13.0096 C   0  0  0  0  0  0  0  0  0  0  0  0
   28.0517    7.3757   13.5219 O   0  0  0  0  0  0  0  0  0  0  0  0
   26.5773   12.5176   10.9123 C   0  0  2  0  0  0  0  0  0  0  0  0
   27.2908   11.3568   10.8282 O   0  0  0  0  0  0  0  0  0  0  0  0
   26.5105   13.0382   12.3178 C   0  0  1  0  0  0  0  0  0  0  0  0
   22.0094   14.6727    9.5999 N   0  0  0  0  0  0  0  0  0  0  0  0
   33.9658    8.5677    3.3889 O   0  0  0  0  0  0  0  0  0  0  0  0
   25.6314   14.3483   12.3492 C   0  0  2  0  0  0  0  0  0  0  0  0
   24.1816   14.1472   11.7868 C   0  0  1  0  0  0  0  0  0  0  0  0
   24.2720   13.6558   10.4319 C   0  0  1  0  0  0  0  0  0  0  0  0
   25.1135   12.3950   10.3742 O   0  0  0  0  0  0  0  0  0  0  0  0
   22.8200   13.3949    9.8345 C   0  0  0  0  0  0  0  0  0  0  0  0
   25.9024   12.0837   13.1578 N   0  0  0  0  0  0  0  0  0  0  0  0
   25.9437    1.5712   10.4725 O   0  0  0  0  0  0  0  0  0  0  0  0
   32.1577    7.8366    2.2245 C   0  0  0  0  0  0  0  0  0  0  0  0
   23.6493   13.3615   12.4324 O   0  0  0  0  0  0  0  0  0  0  0  0
   26.1389   15.1362   11.6822 O   0  0  0  0  0  0  0  0  0  0  0  0
   32.0599    7.4683    4.5602 C   0  0  0  0  0  0  0  0  0  0  0  0
   30.8526    8.2018    1.9805 C   0  0  0  0  0  0  0  0  0  0  0  0
   32.5473    8.4267    3.3538 C   0  0  1  0  0  0  0  0  0  0  0  0
   23.5792    2.5925    9.7890 F   0  0  0  0  0  0  0  0  0  0  0  0
  1  2  1  6  0  0  0
  1 10  1  0  0  0  0
  1  3  1  0  0  0  0
  3  4  1  6  0  0  0
  3  6  1  0  0  0  0
  5 46  2  0  0  0  0
  6 42  1  1  0  0  0
  6  8  1  0  0  0  0
  7 47  1  0  0  0  0
  8  9  1  0  0  0  0
  8 49  1  1  0  0  0
  9 10  1  0  0  0  0
  9 11  1  1  0  0  0
 11 12  1  0  0  0  0
 13 14  1  6  0  0  0
 13 15  1  0  0  0  0
 13 21  1  0  0  0  0
 14 46  1  0  0  0  0
 15 16  1  0  0  0  0
 16 17  1  6  0  0  0
 16 18  1  0  0  0  0
 18  2  1  1  0  0  0
 18 19  1  0  0  0  0
 19 20  1  6  0  0  0
 19 21  1  0  0  0  0
 21 22  1  1  0  0  0
 23 20  1  1  0  0  0
 23 24  1  0  0  0  0
 23 28  1  0  0  0  0
 24 25  1  6  0  0  0
 24 26  1  0  0  0  0
 26 27  1  0  0  0  0
 26 32  1  6  0  0  0
 27 28  1  0  0  0  0
 27 29  1  6  0  0  0
 29 30  1  0  0  0  0
 31 32  1  1  0  0  0
 31 33  1  0  0  0  0
 31 39  1  0  0  0  0
 33 36  1  0  0  0  0
 33 41  1  1  0  0  0
 34 40  1  0  0  0  0
 35 48  1  0  0  0  0
 36 37  1  0  0  0  0
 36 45  1  6  0  0  0
 37 38  1  0  0  0  0
 37 44  1  1  0  0  0
 38 39  1  0  0  0  0
 38 40  1  1  0  0  0
 43 47  1  0  0  0  0
 46 48  1  0  0  0  0
 48 43  1  6  0  0  0
M  END
>  <CHROM.1>
-169.99492915,-170.56619798,-61.11392020,-81.48352362,-179.74900308,164.37866385
99.73917498,179.24983671,78.20950256,68.43753610,-179.04962774,-155.83851432
-36.02533972,27.20544139,8.03358449,8.67073381,0.95482977,-0.79888483,-2.91782615

>  <Name>
ligand

>  <RI>
0

>  <Rbt.Current_Directory>
/home/itssahil/PROJECTS/Mol_Feturizer/New_Systems/rnas/4PDQ

>  <Rbt.Executable>
rbdock ($Id: //depot/dev/client3/rdock/2013.1/src/exe/rbdock.cxx#4 $)

>  <Rbt.Library>
libRbt.so (2013.1, Build901 2013/11/27)

>  <Rbt.Parameter_File>
/export/apps/rDock/src/rDock_2013.1_src/data/scripts/dock_solv.prm

>  <Rbt.Receptor>
prm/pocket_docking_7.prm

>  <SCORE>
-11.0986

>  <SCORE.INTER>
-1.72218

>  <SCORE.INTER.CONST>
1

>  <SCORE.INTER.POLAR>
0

>  <SCORE.INTER.ROT>
13

>  <SCORE.INTER.SOLV>
17.1939

>  <SCORE.INTER.VDW>
-19.1461

>  <SCORE.INTER.norm>
-0.0351465

>  <SCORE.INTRA>
-9.37645

>  <SCORE.INTRA.DIHEDRAL>
-21.2684

>  <SCORE.INTRA.DIHEDRAL.0>
34.5115

>  <SCORE.INTRA.POLAR>
0

>  <SCORE.INTRA.POLAR.0>
0

>  <SCORE.INTRA.REPUL>
0

>  <SCORE.INTRA.REPUL.0>
0

>  <SCORE.INTRA.SOLV>
-2.25446

>  <SCORE.INTRA.SOLV.lig_0>
-122.812

>  <SCORE.INTRA.VDW>
2.38496

>  <SCORE.INTRA.VDW.0>
-7.46208

>  <SCORE.INTRA.norm>
-0.191356

>  <SCORE.RESTR>
0

>  <SCORE.RESTR.CAVITY>
0

>  <SCORE.RESTR.norm>
0

>  <SCORE.SYSTEM>
0

>  <SCORE.SYSTEM.CONST>
0

>  <SCORE.SYSTEM.DIHEDRAL>
0

>  <SCORE.SYSTEM.SOLV>
0

>  <SCORE.SYSTEM.norm>
0

>  <SCORE.heavy>
49

>  <SCORE.norm>
-0.226503

>  <RMSD>
8.320

$$$$
ligand
 OpenBabel11021811513D
libRbt.so/2013.1/901 2013/11/27
 49 52  0  0  0  0  0  0  0  0999 V2000
   24.5154   10.1246    1.1871 C   0  0  2  0  0  0  0  0  0  0  0  0
   25.5759    9.5287    1.8743 O   0  0  0  0  0  0  0  0  0  0  0  0
   23.9886    9.1463    0.0724 C   0  0  2  0  0  0  0  0  0  0  0  0
   23.5364    7.8478    0.7218 N   0  0  0  0  0  0  0  0  0  0  0  0
   27.5233    9.2205    7.2664 O   0  0  0  0  0  0  0  0  0  0  0  0
   25.0873    8.8949   -0.9867 C   0  0  2  0  0  0  0  0  0  0  0  0
   27.1896    8.9915   12.4200 N   0  0  0  0  0  0  0  0  0  0  0  0
   25.5417   10.2222   -1.6139 C   0  0  2  0  0  0  0  0  0  0  0  0
   26.0787   11.2372   -0.5181 C   0  0  2  0  0  0  0  0  0  0  0  0
   24.9815   11.4130    0.5333 O   0  0  0  0  0  0  0  0  0  0  0  0
   26.4847   12.5984   -1.1535 C   0  0  0  0  0  0  0  0  0  0  0  0
   25.4166   13.2685   -1.8047 N   0  0  0  0  0  0  0  0  0  0  0  0
   25.3114   10.6700    6.0493 C   0  0  2  0  0  0  0  0  0  0  0  0
   25.5863   10.6778    7.5160 N   0  0  0  0  0  0  0  0  0  0  0  0
   25.1403    9.1351    5.6120 C   0  0  0  0  0  0  0  0  0  0  0  0
   24.8214    9.0351    4.0736 C   0  0  2  0  0  0  0  0  0  0  0  0
   24.6822    7.6320    3.6564 N   0  0  0  0  0  0  0  0  0  0  0  0
   25.9579    9.6731    3.2501 C   0  0  2  0  0  0  0  0  0  0  0  0
   26.1560   11.1882    3.6604 C   0  0  2  0  0  0  0  0  0  0  0  0
   27.2517   11.7055    2.8170 O   0  0  0  0  0  0  0  0  0  0  0  0
   26.5457   11.2582    5.2239 C   0  0  1  0  0  0  0  0  0  0  0  0
   26.7233   12.5973    5.5631 O   0  0  0  0  0  0  0  0  0  0  0  0
   28.3763   11.1273    2.5645 C   0  0  1  0  0  0  0  0  0  0  0  0
   29.3806   11.9500    1.7047 C   0  0  2  0  0  0  0  0  0  0  0  0
   29.1604   11.6382    0.3652 O   0  0  0  0  0  0  0  0  0  0  0  0
   30.6327   11.3560    2.2022 C   0  0  1  0  0  0  0  0  0  0  0  0
   30.4829   11.1208    3.7370 C   0  0  2  0  0  0  0  0  0  0  0  0
   29.1362   10.7150    3.7470 O   0  0  0  0  0  0  0  0  0  0  0  0
   30.8924   12.2491    4.6847 C   0  0  0  0  0  0  0  0  0  0  0  0
   32.2619   12.5011    4.4323 O   0  0  0  0  0  0  0  0  0  0  0  0
   32.0927    9.7851    1.0089 C   0  0  2  0  0  0  0  0  0  0  0  0
   30.8311   10.0827    1.4369 O   0  0  0  0  0  0  0  0  0  0  0  0
   32.9026    9.1021    2.0713 C   0  0  1  0  0  0  0  0  0  0  0  0
   36.4323   11.9205   -0.9767 N   0  0  0  0  0  0  0  0  0  0  0  0
   25.6795    9.7859   10.2342 O   0  0  0  0  0  0  0  0  0  0  0  0
   34.3597    8.8349    1.5277 C   0  0  2  0  0  0  0  0  0  0  0  0
   35.0992   10.1309    1.0457 C   0  0  1  0  0  0  0  0  0  0  0  0
   34.3065   10.7643    0.0181 C   0  0  1  0  0  0  0  0  0  0  0  0
   32.8989   11.0320    0.5162 O   0  0  0  0  0  0  0  0  0  0  0  0
   34.9994   12.1110   -0.4710 C   0  0  0  0  0  0  0  0  0  0  0  0
   33.0050    9.9300    3.2073 N   0  0  0  0  0  0  0  0  0  0  0  0
   24.6681    8.2158   -1.8049 O   0  0  0  0  0  0  0  0  0  0  0  0
   27.8111    9.0555    9.9466 C   0  0  0  0  0  0  0  0  0  0  0  0
   35.1921   10.8470    1.9379 O   0  0  0  0  0  0  0  0  0  0  0  0
   34.2793    8.1405    0.6141 O   0  0  0  0  0  0  0  0  0  0  0  0
   26.7621    9.8774    7.9909 C   0  0  0  0  0  0  0  0  0  0  0  0
   28.0404    9.1726   11.2993 C   0  0  0  0  0  0  0  0  0  0  0  0
   26.9359    9.9959    9.5932 C   0  0  1  0  0  0  0  0  0  0  0  0
   24.4641   10.8295   -2.2828 F   0  0  0  0  0  0  0  0  0  0  0  0
  1  2  1  6  0  0  0
  1 10  1  0  0  0  0
  1  3  1  0  0  0  0
  3  4  1  1  0  0  0
  3  6  1  0  0  0  0
  5 46  2  0  0  0  0
  6 42  1  6  0  0  0
  6  8  1  0  0  0  0
  7 47  1  0  0  0  0
  8  9  1  0  0  0  0
  8 49  1  1  0  0  0
  9 10  1  0  0  0  0
  9 11  1  6  0  0  0
 11 12  1  0  0  0  0
 13 14  1  1  0  0  0
 13 15  1  0  0  0  0
 13 21  1  0  0  0  0
 14 46  1  0  0  0  0
 15 16  1  0  0  0  0
 16 17  1  6  0  0  0
 16 18  1  0  0  0  0
 18  2  1  6  0  0  0
 18 19  1  0  0  0  0
 19 20  1  6  0  0  0
 19 21  1  0  0  0  0
 21 22  1  1  0  0  0
 23 20  1  1  0  0  0
 23 24  1  0  0  0  0
 23 28  1  0  0  0  0
 24 25  1  6  0  0  0
 24 26  1  0  0  0  0
 26 27  1  0  0  0  0
 26 32  1  6  0  0  0
 27 28  1  0  0  0  0
 27 29  1  1  0  0  0
 29 30  1  0  0  0  0
 31 32  1  1  0  0  0
 31 33  1  0  0  0  0
 31 39  1  0  0  0  0
 33 36  1  0  0  0  0
 33 41  1  1  0  0  0
 34 40  1  0  0  0  0
 35 48  1  0  0  0  0
 36 37  1  0  0  0  0
 36 45  1  6  0  0  0
 37 38  1  0  0  0  0
 37 44  1  1  0  0  0
 38 39  1  0  0  0  0
 38 40  1  1  0  0  0
 43 47  1  0  0  0  0
 46 48  1  0  0  0  0
 48 43  1  1  0  0  0
M  END
>  <CHROM.1>
-147.75304169,66.86121999,60.65268615,56.31029917,-45.23168716,-176.53825022
138.56878066,-59.63682644,84.45063427,56.34662771,64.95378040,-63.77918654
-133.33547020,28.47213719,10.38785221,2.93654903,2.37108994,0.07079958,1.64653604

>  <Name>
ligand

>  <RI>
0

>  <Rbt.Current_Directory>
/home/itssahil/PROJECTS/Mol_Feturizer/New_Systems/rnas/4PDQ

>  <Rbt.Executable>
rbdock ($Id: //depot/dev/client3/rdock/2013.1/src/exe/rbdock.cxx#4 $)

>  <Rbt.Library>
libRbt.so (2013.1, Build901 2013/11/27)

>  <Rbt.Parameter_File>
/export/apps/rDock/src/rDock_2013.1_src/data/scripts/dock_solv.prm

>  <Rbt.Receptor>
prm/pocket_docking_2.prm

>  <SCORE>
-2.17206

>  <SCORE.INTER>
-2.61417

>  <SCORE.INTER.CONST>
1

>  <SCORE.INTER.POLAR>
0

>  <SCORE.INTER.ROT>
13

>  <SCORE.INTER.SOLV>
25.0505

>  <SCORE.INTER.VDW>
-22.3596

>  <SCORE.INTER.norm>
-0.0533504

>  <SCORE.INTRA>
-3.16035

>  <SCORE.INTRA.DIHEDRAL>
-19.7196

>  <SCORE.INTRA.DIHEDRAL.0>
34.5115

>  <SCORE.INTRA.POLAR>
0

>  <SCORE.INTRA.POLAR.0>
0

>  <SCORE.INTRA.REPUL>
0.0746846

>  <SCORE.INTRA.REPUL.0>
0

>  <SCORE.INTRA.SOLV>
5.261

>  <SCORE.INTRA.SOLV.lig_0>
-122.812

>  <SCORE.INTRA.VDW>
3.69555

>  <SCORE.INTRA.VDW.0>
-7.46208

>  <SCORE.INTRA.norm>
-0.0644968

>  <SCORE.RESTR>
3.60245

>  <SCORE.RESTR.CAVITY>
3.60245

>  <SCORE.RESTR.norm>
0.0735195

>  <SCORE.SYSTEM>
0

>  <SCORE.SYSTEM.CONST>
0

>  <SCORE.SYSTEM.DIHEDRAL>
0

>  <SCORE.SYSTEM.SOLV>
0

>  <SCORE.SYSTEM.norm>
0

>  <SCORE.heavy>
49

>  <SCORE.norm>
-0.0443278

>  <RMSD>
8.326

$$$$
ligand
 OpenBabel11021811513D
libRbt.so/2013.1/901 2013/11/27
 49 52  0  0  0  0  0  0  0  0999 V2000
   23.8270   12.0812    9.2370 C   0  0  2  0  0  0  0  0  0  0  0  0
   24.4806   12.7199    8.1801 O   0  0  0  0  0  0  0  0  0  0  0  0
   22.7115   13.0261    9.8200 C   0  0  2  0  0  0  0  0  0  0  0  0
   21.7234   13.3706    8.7167 N   0  0  0  0  0  0  0  0  0  0  0  0
   25.4465   11.3908    1.4981 O   0  0  0  0  0  0  0  0  0  0  0  0
   23.3467   14.2991   10.4264 C   0  0  2  0  0  0  0  0  0  0  0  0
   26.9492    7.3824    0.6048 N   0  0  0  0  0  0  0  0  0  0  0  0
   24.3550   13.9249   11.5241 C   0  0  2  0  0  0  0  0  0  0  0  0
   25.4964   12.9692   10.9731 C   0  0  2  0  0  0  0  0  0  0  0  0
   24.8206   11.7531   10.3369 O   0  0  0  0  0  0  0  0  0  0  0  0
   26.4818   12.5499   12.1022 C   0  0  0  0  0  0  0  0  0  0  0  0
   25.8991   11.7152   13.0911 N   0  0  0  0  0  0  0  0  0  0  0  0
   26.1706   11.9425    4.2632 C   0  0  2  0  0  0  0  0  0  0  0  0
   27.1603   11.5314    3.2247 N   0  0  0  0  0  0  0  0  0  0  0  0
   26.9541   12.8614    5.3207 C   0  0  0  0  0  0  0  0  0  0  0  0
   25.9730   13.3624    6.4452 C   0  0  2  0  0  0  0  0  0  0  0  0
   26.6836   14.1892    7.4318 N   0  0  0  0  0  0  0  0  0  0  0  0
   25.3479   12.1613    7.1825 C   0  0  2  0  0  0  0  0  0  0  0  0
   24.5702   11.2311    6.1662 C   0  0  2  0  0  0  0  0  0  0  0  0
   24.0074   10.1246    6.9652 O   0  0  0  0  0  0  0  0  0  0  0  0
   25.6102   10.6793    5.0638 C   0  0  1  0  0  0  0  0  0  0  0  0
   24.9090    9.8577    4.1847 O   0  0  0  0  0  0  0  0  0  0  0  0
   24.6634    9.2159    7.6030 C   0  0  1  0  0  0  0  0  0  0  0  0
   25.3378    8.1249    6.7201 C   0  0  2  0  0  0  0  0  0  0  0  0
   24.4381    7.0722    6.5703 O   0  0  0  0  0  0  0  0  0  0  0  0
   26.4462    7.7682    7.6213 C   0  0  1  0  0  0  0  0  0  0  0  0
   26.9706    9.0771    8.2885 C   0  0  2  0  0  0  0  0  0  0  0  0
   25.7327    9.7205    8.4676 O   0  0  0  0  0  0  0  0  0  0  0  0
   28.0803    9.8553    7.5801 C   0  0  0  0  0  0  0  0  0  0  0  0
   28.3576   10.9794    8.3938 O   0  0  0  0  0  0  0  0  0  0  0  0
   26.7164    6.3451    9.6026 C   0  0  2  0  0  0  0  0  0  0  0  0
   25.8884    6.7942    8.6145 O   0  0  0  0  0  0  0  0  0  0  0  0
   27.8241    5.4882    9.0644 C   0  0  1  0  0  0  0  0  0  0  0  0
   26.7575    3.7651   14.1479 N   0  0  0  0  0  0  0  0  0  0  0  0
   28.9504   11.7028    1.0359 O   0  0  0  0  0  0  0  0  0  0  0  0
   28.7087    4.9640   10.2613 C   0  0  2  0  0  0  0  0  0  0  0  0
   27.8977    4.1684   11.3421 C   0  0  1  0  0  0  0  0  0  0  0  0
   26.8452    5.0159   11.8515 C   0  0  1  0  0  0  0  0  0  0  0  0
   25.9793    5.5341   10.7189 O   0  0  0  0  0  0  0  0  0  0  0  0
   25.9666    4.2325   12.9227 C   0  0  0  0  0  0  0  0  0  0  0  0
   27.2876    4.3699    8.3950 N   0  0  0  0  0  0  0  0  0  0  0  0
   22.5218   14.9483   10.8785 O   0  0  0  0  0  0  0  0  0  0  0  0
   28.1209    9.5897    1.1179 C   0  0  0  0  0  0  0  0  0  0  0  0
   27.4256    3.2519   10.8376 O   0  0  0  0  0  0  0  0  0  0  0  0
   29.1658    5.8750   10.7946 O   0  0  0  0  0  0  0  0  0  0  0  0
   26.6310   11.2788    1.8445 C   0  0  0  0  0  0  0  0  0  0  0  0
   27.1429    8.7875    0.5738 C   0  0  0  0  0  0  0  0  0  0  0  0
   27.8203   10.8566    0.8351 C   0  0  1  0  0  0  0  0  0  0  0  0
   23.6960   13.2603   12.5735 F   0  0  0  0  0  0  0  0  0  0  0  0
  1  2  1  6  0  0  0
  1 10  1  0  0  0  0
  1  3  1  0  0  0  0
  3  4  1  6  0  0  0
  3  6  1  0  0  0  0
  5 46  2  0  0  0  0
  6 42  1  1  0  0  0
  6  8  1  0  0  0  0
  7 47  1  0  0  0  0
  8  9  1  0  0  0  0
  8 49  1  1  0  0  0
  9 10  1  0  0  0  0
  9 11  1  1  0  0  0
 11 12  1  0  0  0  0
 13 14  1  6  0  0  0
 13 15  1  0  0  0  0
 13 21  1  0  0  0  0
 14 46  1  0  0  0  0
 15 16  1  0  0  0  0
 16 17  1  1  0  0  0
 16 18  1  0  0  0  0
 18  2  1  1  0  0  0
 18 19  1  0  0  0  0
 19 20  1  1  0  0  0
 19 21  1  0  0  0  0
 21 22  1  6  0  0  0
 23 20  1  6  0  0  0
 23 24  1  0  0  0  0
 23 28  1  0  0  0  0
 24 25  1  1  0  0  0
 24 26  1  0  0  0  0
 26 27  1  0  0  0  0
 26 32  1  1  0  0  0
 27 28  1  0  0  0  0
 27 29  1  6  0  0  0
 29 30  1  0  0  0  0
 31 32  1  6  0  0  0
 31 33  1  0  0  0  0
 31 39  1  0  0  0  0
 33 36  1  0  0  0  0
 33 41  1  1  0  0  0
 34 40  1  0  0  0  0
 35 48  1  0  0  0  0
 36 37  1  0  0  0  0
 36 45  1  1  0  0  0
 37 38  1  0  0  0  0
 37 44  1  6  0  0  0
 38 39  1  0  0  0  0
 38 40  1  1  0  0  0
 43 47  1  0  0  0  0
 46 48  1  0  0  0  0
 48 43  1  1  0  0  0
M  END
>  <CHROM.1>
-165.34020046,-169.82605417,67.14097535,-150.57227773,-65.13867584,-73.20773395
-177.53518853,-179.97399915,-67.21554489,61.03106664,-177.99941007,-163.95813087
135.10480642,25.98726932,9.74292886,7.81856669,1.53934192,-1.17971219,2.06440944

>  <Name>
ligand

>  <RI>
0

>  <Rbt.Current_Directory>
/home/itssahil/PROJECTS/Mol_Feturizer/New_Systems/rnas/4PDQ

>  <Rbt.Executable>
rbdock ($Id: //depot/dev/client3/rdock/2013.1/src/exe/rbdock.cxx#4 $)

>  <Rbt.Library>
libRbt.so (2013.1, Build901 2013/11/27)

>  <Rbt.Parameter_File>
/export/apps/rDock/src/rDock_2013.1_src/data/scripts/dock_solv.prm

>  <Rbt.Receptor>
prm/pocket_docking_7.prm

>  <SCORE>
-13.8705

>  <SCORE.INTER>
-0.247595

>  <SCORE.INTER.CONST>
1

>  <SCORE.INTER.POLAR>
0

>  <SCORE.INTER.ROT>
13

>  <SCORE.INTER.SOLV>
16.4604

>  <SCORE.INTER.VDW>
-17.9185

>  <SCORE.INTER.norm>
-0.00505295

>  <SCORE.INTRA>
-13.6229

>  <SCORE.INTRA.DIHEDRAL>
-28.9877

>  <SCORE.INTRA.DIHEDRAL.0>
34.5115

>  <SCORE.INTRA.POLAR>
0

>  <SCORE.INTRA.POLAR.0>
0

>  <SCORE.INTRA.REPUL>
0.0804434

>  <SCORE.INTRA.REPUL.0>
0

>  <SCORE.INTRA.SOLV>
-0.179368

>  <SCORE.INTRA.SOLV.lig_0>
-122.812

>  <SCORE.INTRA.VDW>
0.558481

>  <SCORE.INTRA.VDW.0>
-7.46208

>  <SCORE.INTRA.norm>
-0.278017

>  <SCORE.RESTR>
0

>  <SCORE.RESTR.CAVITY>
0

>  <SCORE.RESTR.norm>
0

>  <SCORE.SYSTEM>
0

>  <SCORE.SYSTEM.CONST>
0

>  <SCORE.SYSTEM.DIHEDRAL>
0

>  <SCORE.SYSTEM.SOLV>
0

>  <SCORE.SYSTEM.norm>
0

>  <SCORE.heavy>
49

>  <SCORE.norm>
-0.28307

>  <RMSD>
8.349

$$$$
ligand
 OpenBabel11021811513D
libRbt.so/2013.1/901 2013/11/27
 49 52  0  0  0  0  0  0  0  0999 V2000
   27.3473    7.1523    1.7695 C   0  0  2  0  0  0  0  0  0  0  0  0
   26.5092    6.2777    2.4657 O   0  0  0  0  0  0  0  0  0  0  0  0
   27.0091    7.1016    0.2332 C   0  0  2  0  0  0  0  0  0  0  0  0
   25.5527    7.4892    0.0304 N   0  0  0  0  0  0  0  0  0  0  0  0
   26.7390    4.7563    8.0106 O   0  0  0  0  0  0  0  0  0  0  0  0
   27.3032    5.6945   -0.3370 C   0  0  2  0  0  0  0  0  0  0  0  0
   25.0917    4.9201   13.0761 N   0  0  0  0  0  0  0  0  0  0  0  0
   28.7744    5.3174   -0.1027 C   0  0  2  0  0  0  0  0  0  0  0  0
   29.1541    5.3592    1.4380 C   0  0  2  0  0  0  0  0  0  0  0  0
   28.7971    6.7486    1.9695 O   0  0  0  0  0  0  0  0  0  0  0  0
   30.6585    5.0306    1.6625 C   0  0  0  0  0  0  0  0  0  0  0  0
   31.0408    4.9990    3.0289 N   0  0  0  0  0  0  0  0  0  0  0  0
   24.7827    6.2363    6.4431 C   0  0  2  0  0  0  0  0  0  0  0  0
   24.5680    5.8538    7.8695 N   0  0  0  0  0  0  0  0  0  0  0  0
   24.9436    4.8733    5.6108 C   0  0  0  0  0  0  0  0  0  0  0  0
   25.1508    5.1854    4.0817 C   0  0  2  0  0  0  0  0  0  0  0  0
   25.3198    3.9447    3.3109 N   0  0  0  0  0  0  0  0  0  0  0  0
   26.4083    6.0542    3.8797 C   0  0  2  0  0  0  0  0  0  0  0  0
   26.2838    7.4062    4.6919 C   0  0  2  0  0  0  0  0  0  0  0  0
   27.5235    8.1631    4.4282 O   0  0  0  0  0  0  0  0  0  0  0  0
   26.1385    7.0605    6.2606 C   0  0  1  0  0  0  0  0  0  0  0  0
   26.0383    8.2618    6.9580 O   0  0  0  0  0  0  0  0  0  0  0  0
   27.8506    9.3113    4.9157 C   0  0  1  0  0  0  0  0  0  0  0  0
   29.2896    9.8023    4.5800 C   0  0  2  0  0  0  0  0  0  0  0  0
   30.1427    9.3661    5.5909 O   0  0  0  0  0  0  0  0  0  0  0  0
   29.0502   11.2530    4.6593 C   0  0  1  0  0  0  0  0  0  0  0  0
   27.6490   11.5489    4.0409 C   0  0  2  0  0  0  0  0  0  0  0  0
   26.9712   10.4174    4.5297 O   0  0  0  0  0  0  0  0  0  0  0  0
   27.5664   11.8338    2.5405 C   0  0  0  0  0  0  0  0  0  0  0  0
   27.9796   10.6476    1.8887 O   0  0  0  0  0  0  0  0  0  0  0  0
   29.0384   12.9378    6.4438 C   0  0  2  0  0  0  0  0  0  0  0  0
   29.1322   11.6173    6.1108 O   0  0  0  0  0  0  0  0  0  0  0  0
   29.0340   13.1461    7.9297 C   0  0  1  0  0  0  0  0  0  0  0  0
   26.1216   17.2166    5.7303 N   0  0  0  0  0  0  0  0  0  0  0  0
   26.1886    3.7776   10.5961 O   0  0  0  0  0  0  0  0  0  0  0  0
   28.8722   14.6844    8.2419 C   0  0  2  0  0  0  0  0  0  0  0  0
   27.5862   15.3228    7.6115 C   0  0  1  0  0  0  0  0  0  0  0  0
   27.6179   15.1184    6.1822 C   0  0  1  0  0  0  0  0  0  0  0  0
   27.7735   13.6454    5.8549 O   0  0  0  0  0  0  0  0  0  0  0  0
   26.3069   15.7135    5.5039 C   0  0  0  0  0  0  0  0  0  0  0  0
   27.9445   12.4655    8.5093 N   0  0  0  0  0  0  0  0  0  0  0  0
   27.0889    5.6948   -1.4597 O   0  0  0  0  0  0  0  0  0  0  0  0
   25.4131    5.9074   10.7458 C   0  0  0  0  0  0  0  0  0  0  0  0
   26.6677   14.7867    8.0433 O   0  0  0  0  0  0  0  0  0  0  0  0
   29.7729   15.2384    7.7891 O   0  0  0  0  0  0  0  0  0  0  0  0
   25.6690    5.0880    8.5404 C   0  0  0  0  0  0  0  0  0  0  0  0
   24.7969    5.7552   11.9677 C   0  0  0  0  0  0  0  0  0  0  0  0
   25.2948    4.7605   10.0780 C   0  0  1  0  0  0  0  0  0  0  0  0
   29.6137    6.2158   -0.7851 F   0  0  0  0  0  0  0  0  0  0  0  0
  1  2  1  1  0  0  0
  1 10  1  0  0  0  0
  1  3  1  0  0  0  0
  3  4  1  1  0  0  0
  3  6  1  0  0  0  0
  5 46  2  0  0  0  0
  6 42  1  6  0  0  0
  6  8  1  0  0  0  0
  7 47  1  0  0  0  0
  8  9  1  0  0  0  0
  8 49  1  6  0  0  0
  9 10  1  0  0  0  0
  9 11  1  6  0  0  0
 11 12  1  0  0  0  0
 13 14  1  1  0  0  0
 13 15  1  0  0  0  0
 13 21  1  0  0  0  0
 14 46  1  0  0  0  0
 15 16  1  0  0  0  0
 16 17  1  6  0  0  0
 16 18  1  0  0  0  0
 18  2  1  6  0  0  0
 18 19  1  0  0  0  0
 19 20  1  1  0  0  0
 19 21  1  0  0  0  0
 21 22  1  1  0  0  0
 23 20  1  6  0  0  0
 23 24  1  0  0  0  0
 23 28  1  0  0  0  0
 24 25  1  1  0  0  0
 24 26  1  0  0  0  0
 26 27  1  0  0  0  0
 26 32  1  1  0  0  0
 27 28  1  0  0  0  0
 27 29  1  6  0  0  0
 29 30  1  0  0  0  0
 31 32  1  1  0  0  0
 31 33  1  0  0  0  0
 31 39  1  0  0  0  0
 33 36  1  0  0  0  0
 33 41  1  1  0  0  0
 34 40  1  0  0  0  0
 35 48  1  0  0  0  0
 36 37  1  0  0  0  0
 36 45  1  6  0  0  0
 37 38  1  0  0  0  0
 37 44  1  1  0  0  0
 38 39  1  0  0  0  0
 38 40  1  6  0  0  0
 43 47  1  0  0  0  0
 46 48  1  0  0  0  0
 48 43  1  1  0  0  0
M  END
>  <CHROM.1>
-176.09194646,169.73959238,-177.50547202,61.43560914,-178.45445987,173.73301130
175.41840945,63.98817999,175.77147144,59.91658727,64.74383943,-75.11462552
-14.63421526,27.32792385,8.72228053,5.13031194,-1.75768492,1.26351381,0.63893847

>  <Name>
ligand

>  <RI>
0

>  <Rbt.Current_Directory>
/home/itssahil/PROJECTS/Mol_Feturizer/New_Systems/rnas/4PDQ

>  <Rbt.Executable>
rbdock ($Id: //depot/dev/client3/rdock/2013.1/src/exe/rbdock.cxx#4 $)

>  <Rbt.Library>
libRbt.so (2013.1, Build901 2013/11/27)

>  <Rbt.Parameter_File>
/export/apps/rDock/src/rDock_2013.1_src/data/scripts/dock_solv.prm

>  <Rbt.Receptor>
prm/pocket_docking_6.prm

>  <SCORE>
-13.4259

>  <SCORE.INTER>
0.983228

>  <SCORE.INTER.CONST>
1

>  <SCORE.INTER.POLAR>
0

>  <SCORE.INTER.ROT>
13

>  <SCORE.INTER.SOLV>
14.9943

>  <SCORE.INTER.VDW>
-16.6093

>  <SCORE.INTER.norm>
0.0200659

>  <SCORE.INTRA>
-14.4091

>  <SCORE.INTRA.DIHEDRAL>
-31.4848

>  <SCORE.INTRA.DIHEDRAL.0>
34.5115

>  <SCORE.INTRA.POLAR>
0

>  <SCORE.INTRA.POLAR.0>
0

>  <SCORE.INTRA.REPUL>
0

>  <SCORE.INTRA.REPUL.0>
0

>  <SCORE.INTRA.SOLV>
-2.46256

>  <SCORE.INTRA.SOLV.lig_0>
-122.812

>  <SCORE.INTRA.VDW>
2.56457

>  <SCORE.INTRA.VDW.0>
-7.46208

>  <SCORE.INTRA.norm>
-0.294064

>  <SCORE.RESTR>
0

>  <SCORE.RESTR.CAVITY>
0

>  <SCORE.RESTR.norm>
0

>  <SCORE.SYSTEM>
0

>  <SCORE.SYSTEM.CONST>
0

>  <SCORE.SYSTEM.DIHEDRAL>
0

>  <SCORE.SYSTEM.SOLV>
0

>  <SCORE.SYSTEM.norm>
0

>  <SCORE.heavy>
49

>  <SCORE.norm>
-0.273998

>  <RMSD>
8.356

$$$$
ligand
 OpenBabel11021811513D
libRbt.so/2013.1/901 2013/11/27
 49 52  0  0  0  0  0  0  0  0999 V2000
   27.1639    8.8097    8.6349 C   0  0  2  0  0  0  0  0  0  0  0  0
   28.3905    8.2460    8.2746 O   0  0  0  0  0  0  0  0  0  0  0  0
   27.3510    9.7213    9.9043 C   0  0  2  0  0  0  0  0  0  0  0  0
   28.3635   10.8116    9.5901 N   0  0  0  0  0  0  0  0  0  0  0  0
   31.3752    8.8780    3.3944 O   0  0  0  0  0  0  0  0  0  0  0  0
   27.7955    8.8711   11.1173 C   0  0  2  0  0  0  0  0  0  0  0  0
   31.6344   10.9698   -0.1333 N   0  0  0  0  0  0  0  0  0  0  0  0
   26.7675    7.7650   11.4026 C   0  0  2  0  0  0  0  0  0  0  0  0
   26.5503    6.8246   10.1424 C   0  0  2  0  0  0  0  0  0  0  0  0
   26.1654    7.7127    8.9577 O   0  0  0  0  0  0  0  0  0  0  0  0
   25.4679    5.7416   10.4202 C   0  0  0  0  0  0  0  0  0  0  0  0
   25.7148    4.9699   11.5853 N   0  0  0  0  0  0  0  0  0  0  0  0
   31.8301    9.7792    6.1249 C   0  0  2  0  0  0  0  0  0  0  0  0
   32.8230    9.9637    5.0263 N   0  0  0  0  0  0  0  0  0  0  0  0
   31.6242    8.1983    6.3110 C   0  0  0  0  0  0  0  0  0  0  0  0
   30.6036    7.9110    7.4747 C   0  0  2  0  0  0  0  0  0  0  0  0
   30.3910    6.4658    7.6417 N   0  0  0  0  0  0  0  0  0  0  0  0
   29.2429    8.5666    7.1654 C   0  0  2  0  0  0  0  0  0  0  0  0
   29.4113   10.1277    6.9717 C   0  0  2  0  0  0  0  0  0  0  0  0
   28.0626   10.6577    6.6898 O   0  0  0  0  0  0  0  0  0  0  0  0
   30.4093   10.3945    5.7331 C   0  0  1  0  0  0  0  0  0  0  0  0
   30.5381   11.7721    5.5740 O   0  0  0  0  0  0  0  0  0  0  0  0
   27.3657   10.4776    5.6200 C   0  0  1  0  0  0  0  0  0  0  0  0
   25.8298   10.3316    5.8311 C   0  0  2  0  0  0  0  0  0  0  0  0
   25.5418    8.9786    5.9933 O   0  0  0  0  0  0  0  0  0  0  0  0
   25.3802   10.8296    4.5204 C   0  0  1  0  0  0  0  0  0  0  0  0
   26.2939   12.0275    4.1161 C   0  0  2  0  0  0  0  0  0  0  0  0
   27.5127   11.5240    4.6056 O   0  0  0  0  0  0  0  0  0  0  0  0
   25.8787   13.4331    4.5529 C   0  0  0  0  0  0  0  0  0  0  0  0
   25.8786   13.4244    5.9680 O   0  0  0  0  0  0  0  0  0  0  0  0
   24.8963    9.8026    2.3445 C   0  0  2  0  0  0  0  0  0  0  0  0
   25.4832    9.6750    3.5703 O   0  0  0  0  0  0  0  0  0  0  0  0
   25.0183    8.5502    1.5274 C   0  0  1  0  0  0  0  0  0  0  0  0
   26.9963   12.2743   -0.8924 N   0  0  0  0  0  0  0  0  0  0  0  0
   34.7072    8.8427    2.8177 O   0  0  0  0  0  0  0  0  0  0  0  0
   24.3660    8.7848    0.1098 C   0  0  2  0  0  0  0  0  0  0  0  0
   24.9832    9.9941   -0.6747 C   0  0  1  0  0  0  0  0  0  0  0  0
   24.8452   11.1877    0.1264 C   0  0  1  0  0  0  0  0  0  0  0  0
   25.4649   10.9879    1.4966 O   0  0  0  0  0  0  0  0  0  0  0  0
   25.4991   12.4357   -0.6138 C   0  0  0  0  0  0  0  0  0  0  0  0
   26.3772    8.2294    1.3356 N   0  0  0  0  0  0  0  0  0  0  0  0
   27.8847    9.5476   12.0341 O   0  0  0  0  0  0  0  0  0  0  0  0
   33.0712    9.5150    1.3924 C   0  0  0  0  0  0  0  0  0  0  0  0
   26.0995    9.7851   -0.8411 O   0  0  0  0  0  0  0  0  0  0  0  0
   23.2514    9.0241    0.2636 O   0  0  0  0  0  0  0  0  0  0  0  0
   32.4436    9.4407    3.6730 C   0  0  0  0  0  0  0  0  0  0  0  0
   32.4103   10.6622    1.0140 C   0  0  0  0  0  0  0  0  0  0  0  0
   33.6106    9.7260    2.5923 C   0  0  1  0  0  0  0  0  0  0  0  0
   25.5286    8.3380   11.7402 F   0  0  0  0  0  0  0  0  0  0  0  0
  1  2  1  1  0  0  0
  1 10  1  0  0  0  0
  1  3  1  0  0  0  0
  3  4  1  6  0  0  0
  3  6  1  0  0  0  0
  5 46  2  0  0  0  0
  6 42  1  1  0  0  0
  6  8  1  0  0  0  0
  7 47  1  0  0  0  0
  8  9  1  0  0  0  0
  8 49  1  6  0  0  0
  9 10  1  0  0  0  0
  9 11  1  1  0  0  0
 11 12  1  0  0  0  0
 13 14  1  6  0  0  0
 13 15  1  0  0  0  0
 13 21  1  0  0  0  0
 14 46  1  0  0  0  0
 15 16  1  0  0  0  0
 16 17  1  6  0  0  0
 16 18  1  0  0  0  0
 18  2  1  1  0  0  0
 18 19  1  0  0  0  0
 19 20  1  6  0  0  0
 19 21  1  0  0  0  0
 21 22  1  1  0  0  0
 23 20  1  1  0  0  0
 23 24  1  0  0  0  0
 23 28  1  0  0  0  0
 24 25  1  6  0  0  0
 24 26  1  0  0  0  0
 26 27  1  0  0  0  0
 26 32  1  6  0  0  0
 27 28  1  0  0  0  0
 27 29  1  1  0  0  0
 29 30  1  0  0  0  0
 31 32  1  1  0  0  0
 31 33  1  0  0  0  0
 31 39  1  0  0  0  0
 33 36  1  0  0  0  0
 33 41  1  6  0  0  0
 34 40  1  0  0  0  0
 35 48  1  0  0  0  0
 36 37  1  0  0  0  0
 36 45  1  1  0  0  0
 37 38  1  0  0  0  0
 37 44  1  1  0  0  0
 38 39  1  0  0  0  0
 38 40  1  6  0  0  0
 43 47  1  0  0  0  0
 46 48  1  0  0  0  0
 48 43  1  6  0  0  0
M  END
>  <CHROM.1>
-106.75541620,165.24323908,-53.93431885,61.73102036,-69.96424215,143.78329905
168.23464250,62.06077775,-177.12369505,-60.41500580,-177.54914007,-157.06525317
-107.00824065,27.93396727,9.61874539,5.17820987,1.57836107,-0.02435601,1.81740119

>  <Name>
ligand

>  <RI>
0

>  <Rbt.Current_Directory>
/home/itssahil/PROJECTS/Mol_Feturizer/New_Systems/rnas/4PDQ

>  <Rbt.Executable>
rbdock ($Id: //depot/dev/client3/rdock/2013.1/src/exe/rbdock.cxx#4 $)

>  <Rbt.Library>
libRbt.so (2013.1, Build901 2013/11/27)

>  <Rbt.Parameter_File>
/export/apps/rDock/src/rDock_2013.1_src/data/scripts/dock_solv.prm

>  <Rbt.Receptor>
prm/pocket_docking_4.prm

>  <SCORE>
-9.99167

>  <SCORE.INTER>
-4.51825

>  <SCORE.INTER.CONST>
1

>  <SCORE.INTER.POLAR>
0

>  <SCORE.INTER.ROT>
13

>  <SCORE.INTER.SOLV>
21.0589

>  <SCORE.INTER.VDW>
-22.2985

>  <SCORE.INTER.norm>
-0.0922092

>  <SCORE.INTRA>
-5.51936

>  <SCORE.INTRA.DIHEDRAL>
-18.325

>  <SCORE.INTRA.DIHEDRAL.0>
34.5115

>  <SCORE.INTRA.POLAR>
0

>  <SCORE.INTRA.POLAR.0>
0

>  <SCORE.INTRA.REPUL>
0

>  <SCORE.INTRA.REPUL.0>
0

>  <SCORE.INTRA.SOLV>
1.39672

>  <SCORE.INTRA.SOLV.lig_0>
-122.812

>  <SCORE.INTRA.VDW>
2.94478

>  <SCORE.INTRA.VDW.0>
-7.46208

>  <SCORE.INTRA.norm>
-0.11264

>  <SCORE.RESTR>
0.0459427

>  <SCORE.RESTR.CAVITY>
0.0459427

>  <SCORE.RESTR.norm>
0.000937605

>  <SCORE.SYSTEM>
0

>  <SCORE.SYSTEM.CONST>
0

>  <SCORE.SYSTEM.DIHEDRAL>
0

>  <SCORE.SYSTEM.SOLV>
0

>  <SCORE.SYSTEM.norm>
0

>  <SCORE.heavy>
49

>  <SCORE.norm>
-0.203912

>  <RMSD>
8.375

$$$$
ligand
 OpenBabel11021811513D
libRbt.so/2013.1/901 2013/11/27
 49 52  0  0  0  0  0  0  0  0999 V2000
   24.7794   10.7782    0.7652 C   0  0  2  0  0  0  0  0  0  0  0  0
   26.0320   10.3083    1.1679 O   0  0  0  0  0  0  0  0  0  0  0  0
   23.9445    9.5980    0.1431 C   0  0  2  0  0  0  0  0  0  0  0  0
   23.7890    8.4966    1.1801 N   0  0  0  0  0  0  0  0  0  0  0  0
   24.9701   10.0860    7.6211 O   0  0  0  0  0  0  0  0  0  0  0  0
   24.6287    9.0721   -1.1403 C   0  0  2  0  0  0  0  0  0  0  0  0
   24.8762    8.2611    9.6821 N   0  0  0  0  0  0  0  0  0  0  0  0
   24.7926   10.2063   -2.1642 C   0  0  2  0  0  0  0  0  0  0  0  0
   25.6294   11.4177   -1.5711 C   0  0  2  0  0  0  0  0  0  0  0  0
   24.9468   11.8682   -0.2782 O   0  0  0  0  0  0  0  0  0  0  0  0
   25.7437   12.5851   -2.5937 C   0  0  0  0  0  0  0  0  0  0  0  0
   26.5630   13.6563   -2.1518 N   0  0  0  0  0  0  0  0  0  0  0  0
   26.4966   11.1706    5.3921 C   0  0  2  0  0  0  0  0  0  0  0  0
   27.0267   11.0905    6.7847 N   0  0  0  0  0  0  0  0  0  0  0  0
   26.2704    9.6634    4.8885 C   0  0  0  0  0  0  0  0  0  0  0  0
   25.6853    9.6552    3.4270 C   0  0  2  0  0  0  0  0  0  0  0  0
   25.4925    8.2790    2.9465 N   0  0  0  0  0  0  0  0  0  0  0  0
   26.6497   10.3729    2.4617 C   0  0  2  0  0  0  0  0  0  0  0  0
   26.8980   11.8627    2.9327 C   0  0  2  0  0  0  0  0  0  0  0  0
   27.8202   12.4603    1.9469 O   0  0  0  0  0  0  0  0  0  0  0  0
   27.5574   11.8412    4.4044 C   0  0  1  0  0  0  0  0  0  0  0  0
   27.7751   13.1595    4.7972 O   0  0  0  0  0  0  0  0  0  0  0  0
   28.9673   12.0005    1.5789 C   0  0  1  0  0  0  0  0  0  0  0  0
   29.6310   10.9828    2.5528 C   0  0  2  0  0  0  0  0  0  0  0  0
   30.4365   11.6939    3.4390 O   0  0  0  0  0  0  0  0  0  0  0  0
   30.4329   10.2322    1.5722 C   0  0  1  0  0  0  0  0  0  0  0  0
   29.5851   10.0704    0.2728 C   0  0  2  0  0  0  0  0  0  0  0  0
   28.9751   11.3378    0.2725 O   0  0  0  0  0  0  0  0  0  0  0  0
   28.6784    8.8450    0.1491 C   0  0  0  0  0  0  0  0  0  0  0  0
   28.2855    8.5082    1.4662 O   0  0  0  0  0  0  0  0  0  0  0  0
   32.6780   10.4583    0.6069 C   0  0  2  0  0  0  0  0  0  0  0  0
   31.6853   11.0257    1.3526 O   0  0  0  0  0  0  0  0  0  0  0  0
   33.3047    9.2851    1.3010 C   0  0  1  0  0  0  0  0  0  0  0  0
   36.1798   13.0663    0.1401 N   0  0  0  0  0  0  0  0  0  0  0  0
   27.7335   11.5795    9.3920 O   0  0  0  0  0  0  0  0  0  0  0  0
   34.4734    8.7124    0.4086 C   0  0  2  0  0  0  0  0  0  0  0  0
   35.5739    9.7724    0.0565 C   0  0  1  0  0  0  0  0  0  0  0  0
   34.9489   10.8857   -0.6184 C   0  0  1  0  0  0  0  0  0  0  0  0
   33.8200   11.4550    0.2198 O   0  0  0  0  0  0  0  0  0  0  0  0
   36.0246   12.0088   -0.9566 C   0  0  0  0  0  0  0  0  0  0  0  0
   33.8546    9.6907    2.5336 N   0  0  0  0  0  0  0  0  0  0  0  0
   23.9837    8.2451   -1.5946 O   0  0  0  0  0  0  0  0  0  0  0  0
   25.8606   10.5620   10.1775 C   0  0  0  0  0  0  0  0  0  0  0  0
   36.0418   10.1464    1.0356 O   0  0  0  0  0  0  0  0  0  0  0  0
   34.0223    8.3597   -0.5891 O   0  0  0  0  0  0  0  0  0  0  0  0
   26.1168   10.5093    7.8254 C   0  0  0  0  0  0  0  0  0  0  0  0
   25.4498    9.2833   10.4814 C   0  0  0  0  0  0  0  0  0  0  0  0
   26.8351   10.4785    9.2727 C   0  0  1  0  0  0  0  0  0  0  0  0
   23.5297   10.6921   -2.5470 F   0  0  0  0  0  0  0  0  0  0  0  0
  1  2  1  6  0  0  0
  1 10  1  0  0  0  0
  1  3  1  0  0  0  0
  3  4  1  1  0  0  0
  3  6  1  0  0  0  0
  5 46  2  0  0  0  0
  6 42  1  6  0  0  0
  6  8  1  0  0  0  0
  7 47  1  0  0  0  0
  8  9  1  0  0  0  0
  8 49  1  1  0  0  0
  9 10  1  0  0  0  0
  9 11  1  6  0  0  0
 11 12  1  0  0  0  0
 13 14  1  1  0  0  0
 13 15  1  0  0  0  0
 13 21  1  0  0  0  0
 14 46  1  0  0  0  0
 15 16  1  0  0  0  0
 16 17  1  6  0  0  0
 16 18  1  0  0  0  0
 18  2  1  6  0  0  0
 18 19  1  0  0  0  0
 19 20  1  6  0  0  0
 19 21  1  0  0  0  0
 21 22  1  1  0  0  0
 23 20  1  1  0  0  0
 23 24  1  0  0  0  0
 23 28  1  0  0  0  0
 24 25  1  1  0  0  0
 24 26  1  0  0  0  0
 26 27  1  0  0  0  0
 26 32  1  6  0  0  0
 27 28  1  0  0  0  0
 27 29  1  1  0  0  0
 29 30  1  0  0  0  0
 31 32  1  1  0  0  0
 31 33  1  0  0  0  0
 31 39  1  0  0  0  0
 33 36  1  0  0  0  0
 33 41  1  1  0  0  0
 34 40  1  0  0  0  0
 35 48  1  0  0  0  0
 36 37  1  0  0  0  0
 36 45  1  6  0  0  0
 37 38  1  0  0  0  0
 37 44  1  1  0  0  0
 38 39  1  0  0  0  0
 38 40  1  1  0  0  0
 43 47  1  0  0  0  0
 46 48  1  0  0  0  0
 48 43  1  1  0  0  0
M  END
>  <CHROM.1>
-123.73359812,57.89290650,-175.72518644,-64.71744761,-54.05293277,-19.78206283
171.95893746,30.07398812,-67.86262352,-90.81588508,-61.54710173,-150.87102695
-149.08401184,28.46716424,10.53784089,2.21918519,2.52794747,0.03778175,1.59572572

>  <Name>
ligand

>  <RI>
0

>  <Rbt.Current_Directory>
/home/itssahil/PROJECTS/Mol_Feturizer/New_Systems/rnas/4PDQ

>  <Rbt.Executable>
rbdock ($Id: //depot/dev/client3/rdock/2013.1/src/exe/rbdock.cxx#4 $)

>  <Rbt.Library>
libRbt.so (2013.1, Build901 2013/11/27)

>  <Rbt.Parameter_File>
/export/apps/rDock/src/rDock_2013.1_src/data/scripts/dock_solv.prm

>  <Rbt.Receptor>
prm/pocket_docking_2.prm

>  <SCORE>
7.91339

>  <SCORE.INTER>
3.62961

>  <SCORE.INTER.CONST>
1

>  <SCORE.INTER.POLAR>
0

>  <SCORE.INTER.ROT>
13

>  <SCORE.INTER.SOLV>
27.9632

>  <SCORE.INTER.VDW>
-19.168

>  <SCORE.INTER.norm>
0.0740736

>  <SCORE.INTRA>
1.77252

>  <SCORE.INTRA.DIHEDRAL>
-11.5877

>  <SCORE.INTRA.DIHEDRAL.0>
34.5115

>  <SCORE.INTRA.POLAR>
0

>  <SCORE.INTRA.POLAR.0>
0

>  <SCORE.INTRA.REPUL>
0

>  <SCORE.INTRA.REPUL.0>
0

>  <SCORE.INTRA.SOLV>
6.58561

>  <SCORE.INTRA.SOLV.lig_0>
-122.812

>  <SCORE.INTRA.VDW>
4.27359

>  <SCORE.INTRA.VDW.0>
-7.46208

>  <SCORE.INTRA.norm>
0.036174

>  <SCORE.RESTR>
2.51126

>  <SCORE.RESTR.CAVITY>
2.51126

>  <SCORE.RESTR.norm>
0.0512501

>  <SCORE.SYSTEM>
0

>  <SCORE.SYSTEM.CONST>
0

>  <SCORE.SYSTEM.DIHEDRAL>
0

>  <SCORE.SYSTEM.SOLV>
0

>  <SCORE.SYSTEM.norm>
0

>  <SCORE.heavy>
49

>  <SCORE.norm>
0.161498

>  <RMSD>
8.453

$$$$
ligand
 OpenBabel11021811513D
libRbt.so/2013.1/901 2013/11/27
 49 52  0  0  0  0  0  0  0  0999 V2000
   27.8300   12.7662    5.9979 C   0  0  2  0  0  0  0  0  0  0  0  0
   28.3702   12.6085    4.7191 O   0  0  0  0  0  0  0  0  0  0  0  0
   26.6027   11.7976    6.1789 C   0  0  2  0  0  0  0  0  0  0  0  0
   27.0647   10.3637    5.9720 N   0  0  0  0  0  0  0  0  0  0  0  0
   34.4983   10.9603    2.7235 O   0  0  0  0  0  0  0  0  0  0  0  0
   25.4703   12.1732    5.1949 C   0  0  2  0  0  0  0  0  0  0  0  0
   38.2134    8.0924    0.5168 N   0  0  0  0  0  0  0  0  0  0  0  0
   25.0345   13.6312    5.4097 C   0  0  2  0  0  0  0  0  0  0  0  0
   26.2483   14.6393    5.2368 C   0  0  2  0  0  0  0  0  0  0  0  0
   27.3616   14.1977    6.1885 O   0  0  0  0  0  0  0  0  0  0  0  0
   25.8118   16.1078    5.5103 C   0  0  0  0  0  0  0  0  0  0  0  0
   26.8967   17.0120    5.6497 N   0  0  0  0  0  0  0  0  0  0  0  0
   31.6077   10.6311    2.6187 C   0  0  2  0  0  0  0  0  0  0  0  0
   32.5681    9.5599    2.2224 N   0  0  0  0  0  0  0  0  0  0  0  0
   31.5783   10.6651    4.2232 C   0  0  0  0  0  0  0  0  0  0  0  0
   30.6022   11.7911    4.7305 C   0  0  2  0  0  0  0  0  0  0  0  0
   30.5511   11.8189    6.1997 N   0  0  0  0  0  0  0  0  0  0  0  0
   29.1758   11.5390    4.2025 C   0  0  2  0  0  0  0  0  0  0  0  0
   29.1701   11.4954    2.6211 C   0  0  2  0  0  0  0  0  0  0  0  0
   27.7696   11.2587    2.2185 O   0  0  0  0  0  0  0  0  0  0  0  0
   30.1257   10.2927    2.1293 C   0  0  1  0  0  0  0  0  0  0  0  0
   30.1010   10.2659    0.7371 O   0  0  0  0  0  0  0  0  0  0  0  0
   27.1705   11.7304    1.1787 C   0  0  1  0  0  0  0  0  0  0  0  0
   27.5787   11.0940   -0.1826 C   0  0  2  0  0  0  0  0  0  0  0  0
   28.6301   11.8392   -0.7109 O   0  0  0  0  0  0  0  0  0  0  0  0
   26.3245   11.3266   -0.9180 C   0  0  1  0  0  0  0  0  0  0  0  0
   25.1347   11.0832    0.0610 C   0  0  2  0  0  0  0  0  0  0  0  0
   25.7088   11.6422    1.2170 O   0  0  0  0  0  0  0  0  0  0  0  0
   24.5613    9.6692    0.1646 C   0  0  0  0  0  0  0  0  0  0  0  0
   25.5606    8.8808    0.7831 O   0  0  0  0  0  0  0  0  0  0  0  0
   25.4685   13.1195   -2.3589 C   0  0  2  0  0  0  0  0  0  0  0  0
   26.3830   12.7375   -1.4202 O   0  0  0  0  0  0  0  0  0  0  0  0
   25.5493   12.2801   -3.5998 C   0  0  1  0  0  0  0  0  0  0  0  0
   26.2220   16.9708   -4.6767 N   0  0  0  0  0  0  0  0  0  0  0  0
   34.2025    7.7934    0.9820 O   0  0  0  0  0  0  0  0  0  0  0  0
   24.5036   12.8077   -4.6573 C   0  0  2  0  0  0  0  0  0  0  0  0
   24.6892   14.3206   -5.0253 C   0  0  1  0  0  0  0  0  0  0  0  0
   24.5978   15.1079   -3.8181 C   0  0  1  0  0  0  0  0  0  0  0  0
   25.5941   14.6199   -2.7835 O   0  0  0  0  0  0  0  0  0  0  0  0
   24.8245   16.6502   -4.1388 C   0  0  0  0  0  0  0  0  0  0  0  0
   26.8349   12.3815   -4.1683 N   0  0  0  0  0  0  0  0  0  0  0  0
   24.5769   11.4831    5.3736 O   0  0  0  0  0  0  0  0  0  0  0  0
   36.0126    9.1333    1.2793 C   0  0  0  0  0  0  0  0  0  0  0  0
   25.7346   14.4565   -5.4794 O   0  0  0  0  0  0  0  0  0  0  0  0
   23.4518   12.7040   -4.2034 O   0  0  0  0  0  0  0  0  0  0  0  0
   34.0284    9.8838    2.3284 C   0  0  0  0  0  0  0  0  0  0  0  0
   36.9421    8.1263    1.1457 C   0  0  0  0  0  0  0  0  0  0  0  0
   34.9363    8.6251    1.8783 C   0  0  1  0  0  0  0  0  0  0  0  0
   24.5149   13.7896    6.7067 F   0  0  0  0  0  0  0  0  0  0  0  0
  1  2  1  6  0  0  0
  1 10  1  0  0  0  0
  1  3  1  0  0  0  0
  3  4  1  6  0  0  0
  3  6  1  0  0  0  0
  5 46  2  0  0  0  0
  6 42  1  1  0  0  0
  6  8  1  0  0  0  0
  7 47  1  0  0  0  0
  8  9  1  0  0  0  0
  8 49  1  1  0  0  0
  9 10  1  0  0  0  0
  9 11  1  1  0  0  0
 11 12  1  0  0  0  0
 13 14  1  1  0  0  0
 13 15  1  0  0  0  0
 13 21  1  0  0  0  0
 14 46  1  0  0  0  0
 15 16  1  0  0  0  0
 16 17  1  1  0  0  0
 16 18  1  0  0  0  0
 18  2  1  6  0  0  0
 18 19  1  0  0  0  0
 19 20  1  1  0  0  0
 19 21  1  0  0  0  0
 21 22  1  6  0  0  0
 23 20  1  1  0  0  0
 23 24  1  0  0  0  0
 23 28  1  0  0  0  0
 24 25  1  6  0  0  0
 24 26  1  0  0  0  0
 26 27  1  0  0  0  0
 26 32  1  1  0  0  0
 27 28  1  0  0  0  0
 27 29  1  1  0  0  0
 29 30  1  0  0  0  0
 31 32  1  1  0  0  0
 31 33  1  0  0  0  0
 31 39  1  0  0  0  0
 33 36  1  0  0  0  0
 33 41  1  6  0  0  0
 34 40  1  0  0  0  0
 35 48  1  0  0  0  0
 36 37  1  0  0  0  0
 36 45  1  1  0  0  0
 37 38  1  0  0  0  0
 37 44  1  1  0  0  0
 38 39  1  0  0  0  0
 38 40  1  6  0  0  0
 43 47  1  0  0  0  0
 46 48  1  0  0  0  0
 48 43  1  6  0  0  0
M  END
>  <CHROM.1>
-74.74722930,-78.63169931,167.37106945,-77.13304394,145.13675912,73.37543177
167.00048477,68.52398529,-58.88102866,-63.75328231,175.66939436,-73.63735234
-155.66122347,28.17239323,12.00680642,1.36142812,0.55126860,-0.45741153,1.55721454

>  <Name>
ligand

>  <RI>
0

>  <Rbt.Current_Directory>
/home/itssahil/PROJECTS/Mol_Feturizer/New_Systems/rnas/4PDQ

>  <Rbt.Executable>
rbdock ($Id: //depot/dev/client3/rdock/2013.1/src/exe/rbdock.cxx#4 $)

>  <Rbt.Library>
libRbt.so (2013.1, Build901 2013/11/27)

>  <Rbt.Parameter_File>
/export/apps/rDock/src/rDock_2013.1_src/data/scripts/dock_solv.prm

>  <Rbt.Receptor>
prm/pocket_docking_5.prm

>  <SCORE>
-12.448

>  <SCORE.INTER>
-5.6308

>  <SCORE.INTER.CONST>
1

>  <SCORE.INTER.POLAR>
0

>  <SCORE.INTER.ROT>
13

>  <SCORE.INTER.SOLV>
22.9706

>  <SCORE.INTER.VDW>
-23.6774

>  <SCORE.INTER.norm>
-0.114914

>  <SCORE.INTRA>
-6.83338

>  <SCORE.INTRA.DIHEDRAL>
-22.0292

>  <SCORE.INTRA.DIHEDRAL.0>
34.5115

>  <SCORE.INTRA.POLAR>
0

>  <SCORE.INTRA.POLAR.0>
0

>  <SCORE.INTRA.REPUL>
0

>  <SCORE.INTRA.REPUL.0>
0

>  <SCORE.INTRA.SOLV>
1.30725

>  <SCORE.INTRA.SOLV.lig_0>
-122.812

>  <SCORE.INTRA.VDW>
3.52758

>  <SCORE.INTRA.VDW.0>
-7.46208

>  <SCORE.INTRA.norm>
-0.139457

>  <SCORE.RESTR>
0.016216

>  <SCORE.RESTR.CAVITY>
0.016216

>  <SCORE.RESTR.norm>
0.000330939

>  <SCORE.SYSTEM>
0

>  <SCORE.SYSTEM.CONST>
0

>  <SCORE.SYSTEM.DIHEDRAL>
0

>  <SCORE.SYSTEM.SOLV>
0

>  <SCORE.SYSTEM.norm>
0

>  <SCORE.heavy>
49

>  <SCORE.norm>
-0.25404

>  <RMSD>
8.464

$$$$
ligand
 OpenBabel11021811513D
libRbt.so/2013.1/901 2013/11/27
 49 52  0  0  0  0  0  0  0  0999 V2000
   26.4398    9.9060    6.4240 C   0  0  2  0  0  0  0  0  0  0  0  0
   27.8319    9.7878    6.4307 O   0  0  0  0  0  0  0  0  0  0  0  0
   26.0198   11.2725    7.0822 C   0  0  2  0  0  0  0  0  0  0  0  0
   26.6524   12.4158    6.3043 N   0  0  0  0  0  0  0  0  0  0  0  0
   33.8685    8.6111    3.8029 O   0  0  0  0  0  0  0  0  0  0  0  0
   26.4372   11.3041    8.5711 C   0  0  2  0  0  0  0  0  0  0  0  0
   35.7377    5.2947   -0.2213 N   0  0  0  0  0  0  0  0  0  0  0  0
   25.8022   10.1292    9.3313 C   0  0  2  0  0  0  0  0  0  0  0  0
   26.2022    8.7315    8.6942 C   0  0  2  0  0  0  0  0  0  0  0  0
   25.8201    8.7667    7.2132 O   0  0  0  0  0  0  0  0  0  0  0  0
   25.5114    7.5499    9.4346 C   0  0  0  0  0  0  0  0  0  0  0  0
   25.9250    6.2697    8.9829 N   0  0  0  0  0  0  0  0  0  0  0  0
   31.0222    8.0564    4.0586 C   0  0  2  0  0  0  0  0  0  0  0  0
   32.0103    7.0527    3.5654 N   0  0  0  0  0  0  0  0  0  0  0  0
   31.1000    8.0432    5.6618 C   0  0  0  0  0  0  0  0  0  0  0  0
   30.1007    9.0977    6.2683 C   0  0  2  0  0  0  0  0  0  0  0  0
   30.1480    9.0810    7.7378 N   0  0  0  0  0  0  0  0  0  0  0  0
   28.6576    8.7805    5.8280 C   0  0  2  0  0  0  0  0  0  0  0  0
   28.5470    8.7814    4.2498 C   0  0  2  0  0  0  0  0  0  0  0  0
   27.1374    8.4775    3.9335 O   0  0  0  0  0  0  0  0  0  0  0  0
   29.5310    7.6489    3.6577 C   0  0  1  0  0  0  0  0  0  0  0  0
   29.4134    7.6602    2.2700 O   0  0  0  0  0  0  0  0  0  0  0  0
   26.4046    9.0413    3.0346 C   0  0  1  0  0  0  0  0  0  0  0  0
   26.7498    8.6823    1.5593 C   0  0  2  0  0  0  0  0  0  0  0  0
   27.6720    9.6152    1.0912 O   0  0  0  0  0  0  0  0  0  0  0  0
   25.4182    8.8897    0.9661 C   0  0  1  0  0  0  0  0  0  0  0  0
   24.3501    8.3608    1.9724 C   0  0  2  0  0  0  0  0  0  0  0  0
   24.9678    8.7862    3.1623 O   0  0  0  0  0  0  0  0  0  0  0  0
   23.9291    6.8937    1.8751 C   0  0  0  0  0  0  0  0  0  0  0  0
   25.1099    6.1310    2.0386 O   0  0  0  0  0  0  0  0  0  0  0  0
   25.4446   10.7988   -0.5761 C   0  0  2  0  0  0  0  0  0  0  0  0
   25.2936   10.3608    0.7080 O   0  0  0  0  0  0  0  0  0  0  0  0
   25.8599   12.2393   -0.6358 C   0  0  1  0  0  0  0  0  0  0  0  0
   21.7314   11.6846   -3.1485 N   0  0  0  0  0  0  0  0  0  0  0  0
   33.9361    5.0483    3.4739 O   0  0  0  0  0  0  0  0  0  0  0  0
   25.9654   12.6913   -2.1440 C   0  0  2  0  0  0  0  0  0  0  0  0
   24.6405   12.4854   -2.9569 C   0  0  1  0  0  0  0  0  0  0  0  0
   24.2669   11.0919   -2.8930 C   0  0  1  0  0  0  0  0  0  0  0  0
   24.1590   10.6318   -1.4516 O   0  0  0  0  0  0  0  0  0  0  0  0
   22.9003   10.8440   -3.6701 C   0  0  0  0  0  0  0  0  0  0  0  0
   24.8930   13.0470   -0.0040 N   0  0  0  0  0  0  0  0  0  0  0  0
   26.0858   12.2873    9.0360 O   0  0  0  0  0  0  0  0  0  0  0  0
   34.2943    6.3115    1.6203 C   0  0  0  0  0  0  0  0  0  0  0  0
   23.8146   13.1145   -2.4673 O   0  0  0  0  0  0  0  0  0  0  0  0
   26.7707   12.0483   -2.6550 O   0  0  0  0  0  0  0  0  0  0  0  0
   33.4421    7.4915    3.4863 C   0  0  0  0  0  0  0  0  0  0  0  0
   35.3284    5.5580    1.1114 C   0  0  0  0  0  0  0  0  0  0  0  0
   34.3868    6.2954    2.9494 C   0  0  1  0  0  0  0  0  0  0  0  0
   24.4007   10.2398    9.2999 F   0  0  0  0  0  0  0  0  0  0  0  0
  1  2  1  1  0  0  0
  1 10  1  0  0  0  0
  1  3  1  0  0  0  0
  3  4  1  6  0  0  0
  3  6  1  0  0  0  0
  5 46  2  0  0  0  0
  6 42  1  1  0  0  0
  6  8  1  0  0  0  0
  7 47  1  0  0  0  0
  8  9  1  0  0  0  0
  8 49  1  6  0  0  0
  9 10  1  0  0  0  0
  9 11  1  1  0  0  0
 11 12  1  0  0  0  0
 13 14  1  6  0  0  0
 13 15  1  0  0  0  0
 13 21  1  0  0  0  0
 14 46  1  0  0  0  0
 15 16  1  0  0  0  0
 16 17  1  1  0  0  0
 16 18  1  0  0  0  0
 18  2  1  1  0  0  0
 18 19  1  0  0  0  0
 19 20  1  1  0  0  0
 19 21  1  0  0  0  0
 21 22  1  6  0  0  0
 23 20  1  1  0  0  0
 23 24  1  0  0  0  0
 23 28  1  0  0  0  0
 24 25  1  6  0  0  0
 24 26  1  0  0  0  0
 26 27  1  0  0  0  0
 26 32  1  1  0  0  0
 27 28  1  0  0  0  0
 27 29  1  1  0  0  0
 29 30  1  0  0  0  0
 31 32  1  1  0  0  0
 31 33  1  0  0  0  0
 31 39  1  0  0  0  0
 33 36  1  0  0  0  0
 33 41  1  1  0  0  0
 34 40  1  0  0  0  0
 35 48  1  0  0  0  0
 36 37  1  0  0  0  0
 36 45  1  6  0  0  0
 37 38  1  0  0  0  0
 37 44  1  1  0  0  0
 38 39  1  0  0  0  0
 38 40  1  1  0  0  0
 43 47  1  0  0  0  0
 46 48  1  0  0  0  0
 48 43  1  6  0  0  0
M  END
>  <CHROM.1>
-173.46172925,-175.17743446,-174.73364007,-81.66604262,137.65909812,72.00773865
103.08013901,58.14754596,-156.37252218,-57.62011544,-176.59695184,-75.97155940
141.91843910,27.55611619,9.25665744,3.16227196,0.82594898,-0.43699570,1.65746594

>  <Name>
ligand

>  <RI>
0

>  <Rbt.Current_Directory>
/home/itssahil/PROJECTS/Mol_Feturizer/New_Systems/rnas/4PDQ

>  <Rbt.Executable>
rbdock ($Id: //depot/dev/client3/rdock/2013.1/src/exe/rbdock.cxx#4 $)

>  <Rbt.Library>
libRbt.so (2013.1, Build901 2013/11/27)

>  <Rbt.Parameter_File>
/export/apps/rDock/src/rDock_2013.1_src/data/scripts/dock_solv.prm

>  <Rbt.Receptor>
prm/pocket_docking_6.prm

>  <SCORE>
-13.3025

>  <SCORE.INTER>
-5.38699

>  <SCORE.INTER.CONST>
1

>  <SCORE.INTER.POLAR>
0

>  <SCORE.INTER.ROT>
13

>  <SCORE.INTER.SOLV>
23.0024

>  <SCORE.INTER.VDW>
-23.5255

>  <SCORE.INTER.norm>
-0.109939

>  <SCORE.INTRA>
-7.91547

>  <SCORE.INTRA.DIHEDRAL>
-16.714

>  <SCORE.INTRA.DIHEDRAL.0>
34.5115

>  <SCORE.INTRA.POLAR>
0

>  <SCORE.INTRA.POLAR.0>
0

>  <SCORE.INTRA.REPUL>
0.0123492

>  <SCORE.INTRA.REPUL.0>
0

>  <SCORE.INTRA.SOLV>
-2.90991

>  <SCORE.INTRA.SOLV.lig_0>
-122.812

>  <SCORE.INTRA.VDW>
1.83475

>  <SCORE.INTRA.VDW.0>
-7.46208

>  <SCORE.INTRA.norm>
-0.16154

>  <SCORE.RESTR>
0

>  <SCORE.RESTR.CAVITY>
0

>  <SCORE.RESTR.norm>
0

>  <SCORE.SYSTEM>
0

>  <SCORE.SYSTEM.CONST>
0

>  <SCORE.SYSTEM.DIHEDRAL>
0

>  <SCORE.SYSTEM.SOLV>
0

>  <SCORE.SYSTEM.norm>
0

>  <SCORE.heavy>
49

>  <SCORE.norm>
-0.271479

>  <RMSD>
8.490

$$$$
ligand
 OpenBabel11021811513D
libRbt.so/2013.1/901 2013/11/27
 49 52  0  0  0  0  0  0  0  0999 V2000
   25.5054    5.0633    6.7810 C   0  0  2  0  0  0  0  0  0  0  0  0
   25.7125    5.2786    5.4162 O   0  0  0  0  0  0  0  0  0  0  0  0
   26.4447    3.9050    7.2843 C   0  0  2  0  0  0  0  0  0  0  0  0
   27.8928    4.2880    7.0219 N   0  0  0  0  0  0  0  0  0  0  0  0
   26.4693    8.9983   -0.0911 O   0  0  0  0  0  0  0  0  0  0  0  0
   26.0782    2.5735    6.5883 C   0  0  2  0  0  0  0  0  0  0  0  0
   26.0670   12.6341   -2.2000 N   0  0  0  0  0  0  0  0  0  0  0  0
   24.6064    2.2180    6.8511 C   0  0  2  0  0  0  0  0  0  0  0  0
   23.6271    3.3656    6.3577 C   0  0  2  0  0  0  0  0  0  0  0  0
   24.0603    4.6701    7.0292 O   0  0  0  0  0  0  0  0  0  0  0  0
   22.1430    3.0237    6.6773 C   0  0  0  0  0  0  0  0  0  0  0  0
   21.6923    1.8158    6.0841 N   0  0  0  0  0  0  0  0  0  0  0  0
   25.2042    8.4146    2.4649 C   0  0  2  0  0  0  0  0  0  0  0  0
   24.5614    9.2449    1.4045 N   0  0  0  0  0  0  0  0  0  0  0  0
   24.9587    6.8780    2.0712 C   0  0  0  0  0  0  0  0  0  0  0  0
   25.6296    5.9262    3.1306 C   0  0  2  0  0  0  0  0  0  0  0  0
   25.3943    4.5150    2.7918 N   0  0  0  0  0  0  0  0  0  0  0  0
   25.0439    6.1903    4.5322 C   0  0  2  0  0  0  0  0  0  0  0  0
   25.2657    7.7001    4.9498 C   0  0  2  0  0  0  0  0  0  0  0  0
   24.6815    7.8468    6.2976 O   0  0  0  0  0  0  0  0  0  0  0  0
   24.5142    8.6511    3.8857 C   0  0  1  0  0  0  0  0  0  0  0  0
   24.7143    9.9733    4.2746 O   0  0  0  0  0  0  0  0  0  0  0  0
   24.5566    8.9369    6.9750 C   0  0  1  0  0  0  0  0  0  0  0  0
   24.1368    8.7622    8.4642 C   0  0  2  0  0  0  0  0  0  0  0  0
   22.7464    8.8102    8.5305 O   0  0  0  0  0  0  0  0  0  0  0  0
   24.7493    9.9851    9.0095 C   0  0  1  0  0  0  0  0  0  0  0  0
   26.1251   10.1952    8.3050 C   0  0  2  0  0  0  0  0  0  0  0  0
   25.7546    9.7789    7.0135 O   0  0  0  0  0  0  0  0  0  0  0  0
   27.3636    9.5525    8.9311 C   0  0  0  0  0  0  0  0  0  0  0  0
   27.1245    8.1577    8.9401 O   0  0  0  0  0  0  0  0  0  0  0  0
   23.4129   11.8902    9.7891 C   0  0  2  0  0  0  0  0  0  0  0  0
   23.7836   11.0992    8.7402 O   0  0  0  0  0  0  0  0  0  0  0  0
   22.3862   12.9096    9.3917 C   0  0  1  0  0  0  0  0  0  0  0  0
   26.3370   15.0706   11.2169 N   0  0  0  0  0  0  0  0  0  0  0  0
   23.1724    9.8848   -1.0063 O   0  0  0  0  0  0  0  0  0  0  0  0
   22.0432   13.8188   10.6350 C   0  0  2  0  0  0  0  0  0  0  0  0
   23.2927   14.5356   11.2546 C   0  0  1  0  0  0  0  0  0  0  0  0
   24.2609   13.5349   11.6376 C   0  0  1  0  0  0  0  0  0  0  0  0
   24.6079   12.6461   10.4583 O   0  0  0  0  0  0  0  0  0  0  0  0
   25.5677   14.2214   12.2327 C   0  0  0  0  0  0  0  0  0  0  0  0
   22.8977   13.7379    8.3725 N   0  0  0  0  0  0  0  0  0  0  0  0
   26.7456    1.7417    6.9995 O   0  0  0  0  0  0  0  0  0  0  0  0
   24.5374   11.6081   -0.4347 C   0  0  0  0  0  0  0  0  0  0  0  0
   23.7557   15.2129   10.4518 O   0  0  0  0  0  0  0  0  0  0  0  0
   21.6042   13.1473   11.4594 O   0  0  0  0  0  0  0  0  0  0  0  0
   25.3429    9.4591    0.1427 C   0  0  0  0  0  0  0  0  0  0  0  0
   25.6809   12.2183   -0.8996 C   0  0  0  0  0  0  0  0  0  0  0  0
   24.5122   10.3629   -0.9082 C   0  0  1  0  0  0  0  0  0  0  0  0
   24.3985    2.0271    8.2286 F   0  0  0  0  0  0  0  0  0  0  0  0
  1  2  1  6  0  0  0
  1 10  1  0  0  0  0
  1  3  1  0  0  0  0
  3  4  1  6  0  0  0
  3  6  1  0  0  0  0
  5 46  2  0  0  0  0
  6 42  1  1  0  0  0
  6  8  1  0  0  0  0
  7 47  1  0  0  0  0
  8  9  1  0  0  0  0
  8 49  1  1  0  0  0
  9 10  1  0  0  0  0
  9 11  1  1  0  0  0
 11 12  1  0  0  0  0
 13 14  1  6  0  0  0
 13 15  1  0  0  0  0
 13 21  1  0  0  0  0
 14 46  1  0  0  0  0
 15 16  1  0  0  0  0
 16 17  1  6  0  0  0
 16 18  1  0  0  0  0
 18  2  1  1  0  0  0
 18 19  1  0  0  0  0
 19 20  1  1  0  0  0
 19 21  1  0  0  0  0
 21 22  1  1  0  0  0
 23 20  1  1  0  0  0
 23 24  1  0  0  0  0
 23 28  1  0  0  0  0
 24 25  1  6  0  0  0
 24 26  1  0  0  0  0
 26 27  1  0  0  0  0
 26 32  1  6  0  0  0
 27 28  1  0  0  0  0
 27 29  1  1  0  0  0
 29 30  1  0  0  0  0
 31 32  1  6  0  0  0
 31 33  1  0  0  0  0
 31 39  1  0  0  0  0
 33 36  1  0  0  0  0
 33 41  1  6  0  0  0
 34 40  1  0  0  0  0
 35 48  1  0  0  0  0
 36 37  1  0  0  0  0
 36 45  1  1  0  0  0
 37 38  1  0  0  0  0
 37 44  1  6  0  0  0
 38 39  1  0  0  0  0
 38 40  1  6  0  0  0
 43 47  1  0  0  0  0
 46 48  1  0  0  0  0
 48 43  1  1  0  0  0
M  END
>  <CHROM.1>
177.22479157,-176.56048662,-59.09577062,-81.74464058,-174.56079966,-169.58008693
127.88435696,60.46084312,-176.70042262,-64.78789033,69.12896459,-153.51992304
132.38749011,24.71460675,8.67657758,6.22934354,0.13325968,-1.46683436,2.42724483

>  <Name>
ligand

>  <RI>
0

>  <Rbt.Current_Directory>
/home/itssahil/PROJECTS/Mol_Feturizer/New_Systems/rnas/4PDQ

>  <Rbt.Executable>
rbdock ($Id: //depot/dev/client3/rdock/2013.1/src/exe/rbdock.cxx#4 $)

>  <Rbt.Library>
libRbt.so (2013.1, Build901 2013/11/27)

>  <Rbt.Parameter_File>
/export/apps/rDock/src/rDock_2013.1_src/data/scripts/dock_solv.prm

>  <Rbt.Receptor>
prm/pocket_docking_8.prm

>  <SCORE>
-24.0131

>  <SCORE.INTER>
-13.5244

>  <SCORE.INTER.CONST>
1

>  <SCORE.INTER.POLAR>
0

>  <SCORE.INTER.ROT>
13

>  <SCORE.INTER.SOLV>
21.8858

>  <SCORE.INTER.VDW>
-28.5782

>  <SCORE.INTER.norm>
-0.276008

>  <SCORE.INTRA>
-10.4888

>  <SCORE.INTRA.DIHEDRAL>
-22.9047

>  <SCORE.INTRA.DIHEDRAL.0>
34.5115

>  <SCORE.INTRA.POLAR>
0

>  <SCORE.INTRA.POLAR.0>
0

>  <SCORE.INTRA.REPUL>
0

>  <SCORE.INTRA.REPUL.0>
0

>  <SCORE.INTRA.SOLV>
-1.71744

>  <SCORE.INTRA.SOLV.lig_0>
-122.812

>  <SCORE.INTRA.VDW>
1.82229

>  <SCORE.INTRA.VDW.0>
-7.46208

>  <SCORE.INTRA.norm>
-0.214056

>  <SCORE.RESTR>
0

>  <SCORE.RESTR.CAVITY>
0

>  <SCORE.RESTR.norm>
0

>  <SCORE.SYSTEM>
0

>  <SCORE.SYSTEM.CONST>
0

>  <SCORE.SYSTEM.DIHEDRAL>
0

>  <SCORE.SYSTEM.SOLV>
0

>  <SCORE.SYSTEM.norm>
0

>  <SCORE.heavy>
49

>  <SCORE.norm>
-0.490064

>  <RMSD>
8.554

$$$$
ligand
 OpenBabel11021811513D
libRbt.so/2013.1/901 2013/11/27
 49 52  0  0  0  0  0  0  0  0999 V2000
   25.9825   11.9685    4.4188 C   0  0  2  0  0  0  0  0  0  0  0  0
   27.3710   12.0516    4.5492 O   0  0  0  0  0  0  0  0  0  0  0  0
   25.2971   12.3603    5.7804 C   0  0  2  0  0  0  0  0  0  0  0  0
   25.7103   13.7742    6.1578 N   0  0  0  0  0  0  0  0  0  0  0  0
   31.4692   12.3133   -0.9366 O   0  0  0  0  0  0  0  0  0  0  0  0
   25.6769   11.3474    6.8857 C   0  0  2  0  0  0  0  0  0  0  0  0
   35.9693   11.2373    0.6693 N   0  0  0  0  0  0  0  0  0  0  0  0
   25.2677    9.9247    6.4733 C   0  0  2  0  0  0  0  0  0  0  0  0
   25.9393    9.4942    5.1009 C   0  0  2  0  0  0  0  0  0  0  0  0
   25.5811   10.5506    4.0540 O   0  0  0  0  0  0  0  0  0  0  0  0
   25.4769    8.0746    4.6618 C   0  0  0  0  0  0  0  0  0  0  0  0
   24.1006    7.9988    4.3241 N   0  0  0  0  0  0  0  0  0  0  0  0
   30.6886   11.6438    1.7869 C   0  0  2  0  0  0  0  0  0  0  0  0
   31.8745   11.0469    1.1055 N   0  0  0  0  0  0  0  0  0  0  0  0
   30.9173   11.4692    3.3660 C   0  0  0  0  0  0  0  0  0  0  0  0
   29.7167   12.0976    4.1671 C   0  0  2  0  0  0  0  0  0  0  0  0
   29.9048   11.9260    5.6152 N   0  0  0  0  0  0  0  0  0  0  0  0
   28.3931   11.4152    3.7680 C   0  0  2  0  0  0  0  0  0  0  0  0
   28.1390   11.5655    2.2137 C   0  0  2  0  0  0  0  0  0  0  0  0
   26.8551   10.8914    1.9371 O   0  0  0  0  0  0  0  0  0  0  0  0
   29.3491   10.8569    1.4168 C   0  0  1  0  0  0  0  0  0  0  0  0
   29.1032   10.9928    0.0527 O   0  0  0  0  0  0  0  0  0  0  0  0
   25.9812   11.2208    1.0479 C   0  0  1  0  0  0  0  0  0  0  0  0
   26.4753   11.1897   -0.4285 C   0  0  2  0  0  0  0  0  0  0  0  0
   26.9660   12.4535   -0.7474 O   0  0  0  0  0  0  0  0  0  0  0  0
   25.1844   10.9262   -1.0860 C   0  0  1  0  0  0  0  0  0  0  0  0
   24.3874    9.9156   -0.2047 C   0  0  2  0  0  0  0  0  0  0  0  0
   24.7587   10.4139    1.0572 O   0  0  0  0  0  0  0  0  0  0  0  0
   24.5812    8.4208   -0.4638 C   0  0  0  0  0  0  0  0  0  0  0  0
   25.9576    8.1593   -0.2643 O   0  0  0  0  0  0  0  0  0  0  0  0
   23.9670   12.5801   -2.4298 C   0  0  2  0  0  0  0  0  0  0  0  0
   24.4963   12.2514   -1.2152 O   0  0  0  0  0  0  0  0  0  0  0  0
   22.7930   11.7166   -2.7861 C   0  0  1  0  0  0  0  0  0  0  0  0
   26.8283   13.6655   -5.7841 N   0  0  0  0  0  0  0  0  0  0  0  0
   33.1195   10.0066   -2.0506 O   0  0  0  0  0  0  0  0  0  0  0  0
   22.2654   12.1159   -4.2187 C   0  0  2  0  0  0  0  0  0  0  0  0
   23.3565   12.0197   -5.3407 C   0  0  1  0  0  0  0  0  0  0  0  0
   24.4703   12.8656   -4.9806 C   0  0  1  0  0  0  0  0  0  0  0  0
   24.9965   12.5017   -3.6051 O   0  0  0  0  0  0  0  0  0  0  0  0
   25.6237   12.7650   -6.0726 C   0  0  0  0  0  0  0  0  0  0  0  0
   23.1837   10.3630   -2.8259 N   0  0  0  0  0  0  0  0  0  0  0  0
   25.1356   11.6296    7.8520 O   0  0  0  0  0  0  0  0  0  0  0  0
   34.3159   11.7432   -1.2065 C   0  0  0  0  0  0  0  0  0  0  0  0
   23.7194   10.9324   -5.3997 O   0  0  0  0  0  0  0  0  0  0  0  0
   21.9246   13.2140   -4.1816 O   0  0  0  0  0  0  0  0  0  0  0  0
   32.1439   11.4905   -0.3015 C   0  0  0  0  0  0  0  0  0  0  0  0
   35.0658   12.0274   -0.0871 C   0  0  0  0  0  0  0  0  0  0  0  0
   33.4623   10.7687   -0.8952 C   0  0  1  0  0  0  0  0  0  0  0  0
   23.8719    9.8534    6.3192 F   0  0  0  0  0  0  0  0  0  0  0  0
  1  2  1  1  0  0  0
  1 10  1  0  0  0  0
  1  3  1  0  0  0  0
  3  4  1  1  0  0  0
  3  6  1  0  0  0  0
  5 46  2  0  0  0  0
  6 42  1  1  0  0  0
  6  8  1  0  0  0  0
  7 47  1  0  0  0  0
  8  9  1  0  0  0  0
  8 49  1  6  0  0  0
  9 10  1  0  0  0  0
  9 11  1  6  0  0  0
 11 12  1  0  0  0  0
 13 14  1  6  0  0  0
 13 15  1  0  0  0  0
 13 21  1  0  0  0  0
 14 46  1  0  0  0  0
 15 16  1  0  0  0  0
 16 17  1  1  0  0  0
 16 18  1  0  0  0  0
 18  2  1  1  0  0  0
 18 19  1  0  0  0  0
 19 20  1  6  0  0  0
 19 21  1  0  0  0  0
 21 22  1  6  0  0  0
 23 20  1  1  0  0  0
 23 24  1  0  0  0  0
 23 28  1  0  0  0  0
 24 25  1  6  0  0  0
 24 26  1  0  0  0  0
 26 27  1  0  0  0  0
 26 32  1  1  0  0  0
 27 28  1  0  0  0  0
 27 29  1  1  0  0  0
 29 30  1  0  0  0  0
 31 32  1  1  0  0  0
 31 33  1  0  0  0  0
 31 39  1  0  0  0  0
 33 36  1  0  0  0  0
 33 41  1  6  0  0  0
 34 40  1  0  0  0  0
 35 48  1  0  0  0  0
 36 37  1  0  0  0  0
 36 45  1  1  0  0  0
 37 38  1  0  0  0  0
 37 44  1  1  0  0  0
 38 39  1  0  0  0  0
 38 40  1  6  0  0  0
 43 47  1  0  0  0  0
 46 48  1  0  0  0  0
 48 43  1  6  0  0  0
M  END
>  <CHROM.1>
158.26056224,168.28615162,66.62195711,-159.22453271,146.85522189,60.86947771
131.50866986,59.45617978,68.13433888,178.35790382,62.29103140,-152.71074129
-61.06130784,27.05997216,11.25675322,0.76823249,1.14640742,0.03918263,1.68879917

>  <Name>
ligand

>  <RI>
0

>  <Rbt.Current_Directory>
/home/itssahil/PROJECTS/Mol_Feturizer/New_Systems/rnas/4PDQ

>  <Rbt.Executable>
rbdock ($Id: //depot/dev/client3/rdock/2013.1/src/exe/rbdock.cxx#4 $)

>  <Rbt.Library>
libRbt.so (2013.1, Build901 2013/11/27)

>  <Rbt.Parameter_File>
/export/apps/rDock/src/rDock_2013.1_src/data/scripts/dock_solv.prm

>  <Rbt.Receptor>
prm/pocket_docking_4.prm

>  <SCORE>
-11.7201

>  <SCORE.INTER>
-8.84147

>  <SCORE.INTER.CONST>
1

>  <SCORE.INTER.POLAR>
0

>  <SCORE.INTER.ROT>
13

>  <SCORE.INTER.SOLV>
19.5526

>  <SCORE.INTER.VDW>
-24.6785

>  <SCORE.INTER.norm>
-0.180438

>  <SCORE.INTRA>
-2.88126

>  <SCORE.INTRA.DIHEDRAL>
-15.4542

>  <SCORE.INTRA.DIHEDRAL.0>
34.5115

>  <SCORE.INTRA.POLAR>
0

>  <SCORE.INTRA.POLAR.0>
0

>  <SCORE.INTRA.REPUL>
0.306138

>  <SCORE.INTRA.REPUL.0>
0

>  <SCORE.INTRA.SOLV>
1.49963

>  <SCORE.INTRA.SOLV.lig_0>
-122.812

>  <SCORE.INTRA.VDW>
2.56534

>  <SCORE.INTRA.VDW.0>
-7.46208

>  <SCORE.INTRA.norm>
-0.0588013

>  <SCORE.RESTR>
0.00261817

>  <SCORE.RESTR.CAVITY>
0.00261817

>  <SCORE.RESTR.norm>
5.34321e-05

>  <SCORE.SYSTEM>
0

>  <SCORE.SYSTEM.CONST>
0

>  <SCORE.SYSTEM.DIHEDRAL>
0

>  <SCORE.SYSTEM.SOLV>
0

>  <SCORE.SYSTEM.norm>
0

>  <SCORE.heavy>
49

>  <SCORE.norm>
-0.239186

>  <RMSD>
8.565

$$$$
ligand
 OpenBabel11021811513D
libRbt.so/2013.1/901 2013/11/27
 49 52  0  0  0  0  0  0  0  0999 V2000
   26.6877    7.8030    8.8600 C   0  0  2  0  0  0  0  0  0  0  0  0
   25.6071    7.7515    7.9759 O   0  0  0  0  0  0  0  0  0  0  0  0
   26.3455    6.9914   10.1644 C   0  0  2  0  0  0  0  0  0  0  0  0
   26.0367    5.5507    9.7883 N   0  0  0  0  0  0  0  0  0  0  0  0
   24.9552   10.1172    2.7795 O   0  0  0  0  0  0  0  0  0  0  0  0
   25.1600    7.6463   10.9110 C   0  0  2  0  0  0  0  0  0  0  0  0
   25.2034   12.1278   -1.9515 N   0  0  0  0  0  0  0  0  0  0  0  0
   25.4877    9.1059   11.2624 C   0  0  2  0  0  0  0  0  0  0  0  0
   25.8405    9.9571    9.9699 C   0  0  2  0  0  0  0  0  0  0  0  0
   26.9789    9.2443    9.2376 O   0  0  0  0  0  0  0  0  0  0  0  0
   26.2252   11.4191   10.3388 C   0  0  0  0  0  0  0  0  0  0  0  0
   25.2365   12.0982   11.0973 N   0  0  0  0  0  0  0  0  0  0  0  0
   25.3196    7.3685    3.6662 C   0  0  2  0  0  0  0  0  0  0  0  0
   25.0688    7.7428    2.2435 N   0  0  0  0  0  0  0  0  0  0  0  0
   24.0734    7.9100    4.5208 C   0  0  0  0  0  0  0  0  0  0  0  0
   24.2452    7.5344    6.0399 C   0  0  2  0  0  0  0  0  0  0  0  0
   23.1191    8.0429    6.8370 N   0  0  0  0  0  0  0  0  0  0  0  0
   25.5462    8.1457    6.5973 C   0  0  2  0  0  0  0  0  0  0  0  0
   26.7960    7.6347    5.7729 C   0  0  2  0  0  0  0  0  0  0  0  0
   27.9818    8.2661    6.3849 O   0  0  0  0  0  0  0  0  0  0  0  0
   26.6268    8.0888    4.2345 C   0  0  1  0  0  0  0  0  0  0  0  0
   27.7389    7.6371    3.5282 O   0  0  0  0  0  0  0  0  0  0  0  0
   28.2016    9.5285    6.5293 C   0  0  1  0  0  0  0  0  0  0  0  0
   29.6069    9.9106    7.0802 C   0  0  2  0  0  0  0  0  0  0  0  0
   29.5231    9.9811    8.4687 O   0  0  0  0  0  0  0  0  0  0  0  0
   29.7237   11.2475    6.4744 C   0  0  1  0  0  0  0  0  0  0  0  0
   29.1207   11.1841    5.0371 C   0  0  2  0  0  0  0  0  0  0  0  0
   28.0411   10.3250    5.3104 O   0  0  0  0  0  0  0  0  0  0  0  0
   30.0488   10.8133    3.8794 C   0  0  0  0  0  0  0  0  0  0  0  0
   30.5105    9.5024    4.1459 O   0  0  0  0  0  0  0  0  0  0  0  0
   28.1517   13.1048    6.7951 C   0  0  2  0  0  0  0  0  0  0  0  0
   28.9799   12.1872    7.3744 O   0  0  0  0  0  0  0  0  0  0  0  0
   28.5780   14.5133    7.0873 C   0  0  1  0  0  0  0  0  0  0  0  0
   24.0655   13.5804    8.6294 N   0  0  0  0  0  0  0  0  0  0  0  0
   23.3291    9.0330    0.0157 O   0  0  0  0  0  0  0  0  0  0  0  0
   27.5513   15.5171    6.4327 C   0  0  2  0  0  0  0  0  0  0  0  0
   26.0715   15.3004    6.9040 C   0  0  1  0  0  0  0  0  0  0  0  0
   25.6814   13.9428    6.6038 C   0  0  1  0  0  0  0  0  0  0  0  0
   26.6541   12.9566    7.2223 O   0  0  0  0  0  0  0  0  0  0  0  0
   24.1971   13.6642    7.1060 C   0  0  0  0  0  0  0  0  0  0  0  0
   28.5820   14.7377    8.4787 N   0  0  0  0  0  0  0  0  0  0  0  0
   24.9577    7.0637   11.8732 O   0  0  0  0  0  0  0  0  0  0  0  0
   24.8046   10.7540    0.1608 C   0  0  0  0  0  0  0  0  0  0  0  0
   26.0275   15.4572    8.0403 O   0  0  0  0  0  0  0  0  0  0  0  0
   27.5639   15.3508    5.2946 O   0  0  0  0  0  0  0  0  0  0  0  0
   24.8977    9.2024    1.9454 C   0  0  0  0  0  0  0  0  0  0  0  0
   24.9291   10.9593   -1.1950 C   0  0  0  0  0  0  0  0  0  0  0  0
   24.6474    9.4471    0.3678 C   0  0  1  0  0  0  0  0  0  0  0  0
   26.5914    9.1529   12.1324 F   0  0  0  0  0  0  0  0  0  0  0  0
  1  2  1  6  0  0  0
  1 10  1  0  0  0  0
  1  3  1  0  0  0  0
  3  4  1  6  0  0  0
  3  6  1  0  0  0  0
  5 46  2  0  0  0  0
  6 42  1  1  0  0  0
  6  8  1  0  0  0  0
  7 47  1  0  0  0  0
  8  9  1  0  0  0  0
  8 49  1  1  0  0  0
  9 10  1  0  0  0  0
  9 11  1  1  0  0  0
 11 12  1  0  0  0  0
 13 14  1  6  0  0  0
 13 15  1  0  0  0  0
 13 21  1  0  0  0  0
 14 46  1  0  0  0  0
 15 16  1  0  0  0  0
 16 17  1  1  0  0  0
 16 18  1  0  0  0  0
 18  2  1  1  0  0  0
 18 19  1  0  0  0  0
 19 20  1  1  0  0  0
 19 21  1  0  0  0  0
 21 22  1  6  0  0  0
 23 20  1  6  0  0  0
 23 24  1  0  0  0  0
 23 28  1  0  0  0  0
 24 25  1  1  0  0  0
 24 26  1  0  0  0  0
 26 27  1  0  0  0  0
 26 32  1  1  0  0  0
 27 28  1  0  0  0  0
 27 29  1  6  0  0  0
 29 30  1  0  0  0  0
 31 32  1  1  0  0  0
 31 33  1  0  0  0  0
 31 39  1  0  0  0  0
 33 36  1  0  0  0  0
 33 41  1  1  0  0  0
 34 40  1  0  0  0  0
 35 48  1  0  0  0  0
 36 37  1  0  0  0  0
 36 45  1  6  0  0  0
 37 38  1  0  0  0  0
 37 44  1  1  0  0  0
 38 39  1  0  0  0  0
 38 40  1  1  0  0  0
 43 47  1  0  0  0  0
 46 48  1  0  0  0  0
 48 43  1  1  0  0  0
M  END
>  <CHROM.1>
-168.43820460,165.66695561,-55.58087945,58.65257382,-57.77494737,-173.98649770
-135.48706515,62.21712429,-118.32929965,-71.36461180,-175.13365918,-75.23963453
-107.48602777,26.49614900,10.33800411,6.33200919,1.20257928,1.28733639,1.94737872

>  <Name>
ligand

>  <RI>
0

>  <Rbt.Current_Directory>
/home/itssahil/PROJECTS/Mol_Feturizer/New_Systems/rnas/4PDQ

>  <Rbt.Executable>
rbdock ($Id: //depot/dev/client3/rdock/2013.1/src/exe/rbdock.cxx#4 $)

>  <Rbt.Library>
libRbt.so (2013.1, Build901 2013/11/27)

>  <Rbt.Parameter_File>
/export/apps/rDock/src/rDock_2013.1_src/data/scripts/dock_solv.prm

>  <Rbt.Receptor>
prm/pocket_docking_5.prm

>  <SCORE>
-7.29903

>  <SCORE.INTER>
-2.55918

>  <SCORE.INTER.CONST>
1

>  <SCORE.INTER.POLAR>
0

>  <SCORE.INTER.ROT>
13

>  <SCORE.INTER.SOLV>
16.5162

>  <SCORE.INTER.VDW>
-19.4782

>  <SCORE.INTER.norm>
-0.0522282

>  <SCORE.INTRA>
-4.73985

>  <SCORE.INTRA.DIHEDRAL>
-17.0027

>  <SCORE.INTRA.DIHEDRAL.0>
34.5115

>  <SCORE.INTRA.POLAR>
0

>  <SCORE.INTRA.POLAR.0>
0

>  <SCORE.INTRA.REPUL>
0.000460142

>  <SCORE.INTRA.REPUL.0>
0

>  <SCORE.INTRA.SOLV>
1.91559

>  <SCORE.INTRA.SOLV.lig_0>
-122.812

>  <SCORE.INTRA.VDW>
2.80139

>  <SCORE.INTRA.VDW.0>
-7.46208

>  <SCORE.INTRA.norm>
-0.0967316

>  <SCORE.RESTR>
0

>  <SCORE.RESTR.CAVITY>
0

>  <SCORE.RESTR.norm>
0

>  <SCORE.SYSTEM>
0

>  <SCORE.SYSTEM.CONST>
0

>  <SCORE.SYSTEM.DIHEDRAL>
0

>  <SCORE.SYSTEM.SOLV>
0

>  <SCORE.SYSTEM.norm>
0

>  <SCORE.heavy>
49

>  <SCORE.norm>
-0.14896

>  <RMSD>
8.592

$$$$
ligand
 OpenBabel11021811513D
libRbt.so/2013.1/901 2013/11/27
 49 52  0  0  0  0  0  0  0  0999 V2000
   25.7977   10.3423    0.4629 C   0  0  2  0  0  0  0  0  0  0  0  0
   26.0453   10.9245    1.7086 O   0  0  0  0  0  0  0  0  0  0  0  0
   27.1387   10.2500   -0.3559 C   0  0  2  0  0  0  0  0  0  0  0  0
   28.1444    9.4201    0.4266 N   0  0  0  0  0  0  0  0  0  0  0  0
   24.9543   10.4669    8.4693 O   0  0  0  0  0  0  0  0  0  0  0  0
   27.6860   11.6654   -0.6546 C   0  0  2  0  0  0  0  0  0  0  0  0
   28.3188   10.8375    9.0056 N   0  0  0  0  0  0  0  0  0  0  0  0
   26.6455   12.4907   -1.4278 C   0  0  2  0  0  0  0  0  0  0  0  0
   25.2763   12.6045   -0.6327 C   0  0  2  0  0  0  0  0  0  0  0  0
   24.8022   11.1855   -0.3135 O   0  0  0  0  0  0  0  0  0  0  0  0
   24.2100   13.3941   -1.4458 C   0  0  0  0  0  0  0  0  0  0  0  0
   23.7580   12.7168   -2.6081 N   0  0  0  0  0  0  0  0  0  0  0  0
   26.3215   10.0149    5.9393 C   0  0  2  0  0  0  0  0  0  0  0  0
   26.6471    9.2687    7.1900 N   0  0  0  0  0  0  0  0  0  0  0  0
   25.6677    8.9608    4.9205 C   0  0  0  0  0  0  0  0  0  0  0  0
   25.2689    9.6735    3.5746 C   0  0  2  0  0  0  0  0  0  0  0  0
   24.6870    8.7137    2.6248 N   0  0  0  0  0  0  0  0  0  0  0  0
   26.5109   10.3092    2.9187 C   0  0  2  0  0  0  0  0  0  0  0  0
   27.1830   11.3522    3.9002 C   0  0  2  0  0  0  0  0  0  0  0  0
   28.3481   11.9053    3.1818 O   0  0  0  0  0  0  0  0  0  0  0  0
   27.6409   10.5845    5.2427 C   0  0  1  0  0  0  0  0  0  0  0  0
   28.2364   11.5166    6.0890 O   0  0  0  0  0  0  0  0  0  0  0  0
   29.4848   11.3286    2.9861 C   0  0  1  0  0  0  0  0  0  0  0  0
   30.4768   12.0891    2.0575 C   0  0  2  0  0  0  0  0  0  0  0  0
   30.2686   11.6522    0.7515 O   0  0  0  0  0  0  0  0  0  0  0  0
   31.7379   11.5677    2.6104 C   0  0  1  0  0  0  0  0  0  0  0  0
   31.5859   11.4706    4.1599 C   0  0  2  0  0  0  0  0  0  0  0  0
   30.2472   11.0410    4.2033 O   0  0  0  0  0  0  0  0  0  0  0  0
   31.9693   12.6885    5.0017 C   0  0  0  0  0  0  0  0  0  0  0  0
   31.6923   12.3440    6.3460 O   0  0  0  0  0  0  0  0  0  0  0  0
   32.7508   10.1896    0.8502 C   0  0  2  0  0  0  0  0  0  0  0  0
   31.9643   10.2341    1.9651 O   0  0  0  0  0  0  0  0  0  0  0  0
   33.3069    8.8175    0.6064 C   0  0  1  0  0  0  0  0  0  0  0  0
   37.0165   11.9506    0.9388 N   0  0  0  0  0  0  0  0  0  0  0  0
   27.3296    7.8028    9.2777 O   0  0  0  0  0  0  0  0  0  0  0  0
   34.2436    8.8506   -0.6630 C   0  0  2  0  0  0  0  0  0  0  0  0
   35.4146    9.8877   -0.5544 C   0  0  1  0  0  0  0  0  0  0  0  0
   34.8549   11.2000   -0.3300 C   0  0  1  0  0  0  0  0  0  0  0  0
   33.9487   11.1950    0.8866 O   0  0  0  0  0  0  0  0  0  0  0  0
   36.0122   12.2806   -0.1692 C   0  0  0  0  0  0  0  0  0  0  0  0
   34.0811    8.4073    1.7103 N   0  0  0  0  0  0  0  0  0  0  0  0
   28.6358   11.5728   -1.2836 O   0  0  0  0  0  0  0  0  0  0  0  0
   26.7772    9.5695   10.5943 C   0  0  0  0  0  0  0  0  0  0  0  0
   36.0672    9.6030    0.3460 O   0  0  0  0  0  0  0  0  0  0  0  0
   33.6077    9.1631   -1.5693 O   0  0  0  0  0  0  0  0  0  0  0  0
   25.8560    9.6186    8.4150 C   0  0  0  0  0  0  0  0  0  0  0  0
   27.9814   10.0652   10.1469 C   0  0  0  0  0  0  0  0  0  0  0  0
   26.3141    8.7204    9.6778 C   0  0  1  0  0  0  0  0  0  0  0  0
   26.3817   11.8866   -2.6698 F   0  0  0  0  0  0  0  0  0  0  0  0
  1  2  1  1  0  0  0
  1 10  1  0  0  0  0
  1  3  1  0  0  0  0
  3  4  1  1  0  0  0
  3  6  1  0  0  0  0
  5 46  2  0  0  0  0
  6 42  1  6  0  0  0
  6  8  1  0  0  0  0
  7 47  1  0  0  0  0
  8  9  1  0  0  0  0
  8 49  1  6  0  0  0
  9 10  1  0  0  0  0
  9 11  1  6  0  0  0
 11 12  1  0  0  0  0
 13 14  1  1  0  0  0
 13 15  1  0  0  0  0
 13 21  1  0  0  0  0
 14 46  1  0  0  0  0
 15 16  1  0  0  0  0
 16 17  1  6  0  0  0
 16 18  1  0  0  0  0
 18  2  1  6  0  0  0
 18 19  1  0  0  0  0
 19 20  1  6  0  0  0
 19 21  1  0  0  0  0
 21 22  1  1  0  0  0
 23 20  1  1  0  0  0
 23 24  1  0  0  0  0
 23 28  1  0  0  0  0
 24 25  1  6  0  0  0
 24 26  1  0  0  0  0
 26 27  1  0  0  0  0
 26 32  1  6  0  0  0
 27 28  1  0  0  0  0
 27 29  1  1  0  0  0
 29 30  1  0  0  0  0
 31 32  1  1  0  0  0
 31 33  1  0  0  0  0
 31 39  1  0  0  0  0
 33 36  1  0  0  0  0
 33 41  1  1  0  0  0
 34 40  1  0  0  0  0
 35 48  1  0  0  0  0
 36 37  1  0  0  0  0
 36 45  1  6  0  0  0
 37 38  1  0  0  0  0
 37 44  1  1  0  0  0
 38 39  1  0  0  0  0
 38 40  1  1  0  0  0
 43 47  1  0  0  0  0
 46 48  1  0  0  0  0
 48 43  1  1  0  0  0
M  END
>  <CHROM.1>
-84.05941770,-81.66978128,68.10066033,-112.36363439,-76.16741674,173.49057807
94.47060870,178.03729680,158.83970251,-55.99386159,62.29631884,48.18611148
177.46668695,29.17779425,10.70465276,2.71569672,2.33743567,-0.05677396,1.72838447

>  <Name>
ligand

>  <RI>
0

>  <Rbt.Current_Directory>
/home/itssahil/PROJECTS/Mol_Feturizer/New_Systems/rnas/4PDQ

>  <Rbt.Executable>
rbdock ($Id: //depot/dev/client3/rdock/2013.1/src/exe/rbdock.cxx#4 $)

>  <Rbt.Library>
libRbt.so (2013.1, Build901 2013/11/27)

>  <Rbt.Parameter_File>
/export/apps/rDock/src/rDock_2013.1_src/data/scripts/dock_solv.prm

>  <Rbt.Receptor>
prm/pocket_docking_2.prm

>  <SCORE>
4.6888

>  <SCORE.INTER>
-1.1208

>  <SCORE.INTER.CONST>
1

>  <SCORE.INTER.POLAR>
0

>  <SCORE.INTER.ROT>
13

>  <SCORE.INTER.SOLV>
20.0741

>  <SCORE.INTER.VDW>
-19.7052

>  <SCORE.INTER.norm>
-0.0228735

>  <SCORE.INTRA>
2.10347

>  <SCORE.INTRA.DIHEDRAL>
-17.6226

>  <SCORE.INTRA.DIHEDRAL.0>
34.5115

>  <SCORE.INTRA.POLAR>
0

>  <SCORE.INTRA.POLAR.0>
0

>  <SCORE.INTRA.REPUL>
0

>  <SCORE.INTRA.REPUL.0>
0

>  <SCORE.INTRA.SOLV>
9.97261

>  <SCORE.INTRA.SOLV.lig_0>
-122.812

>  <SCORE.INTRA.VDW>
5.92847

>  <SCORE.INTRA.VDW.0>
-7.46208

>  <SCORE.INTRA.norm>
0.042928

>  <SCORE.RESTR>
3.70613

>  <SCORE.RESTR.CAVITY>
3.70613

>  <SCORE.RESTR.norm>
0.0756353

>  <SCORE.SYSTEM>
0

>  <SCORE.SYSTEM.CONST>
0

>  <SCORE.SYSTEM.DIHEDRAL>
0

>  <SCORE.SYSTEM.SOLV>
0

>  <SCORE.SYSTEM.norm>
0

>  <SCORE.heavy>
49

>  <SCORE.norm>
0.0956898

>  <RMSD>
8.597

$$$$
ligand
 OpenBabel11021811513D
libRbt.so/2013.1/901 2013/11/27
 49 52  0  0  0  0  0  0  0  0999 V2000
   27.2601    9.2202    6.6436 C   0  0  2  0  0  0  0  0  0  0  0  0
   26.6544    8.4229    5.6692 O   0  0  0  0  0  0  0  0  0  0  0  0
   26.4278    9.1525    7.9777 C   0  0  2  0  0  0  0  0  0  0  0  0
   26.3538    7.7077    8.4462 N   0  0  0  0  0  0  0  0  0  0  0  0
   24.4567   10.3866    0.7246 O   0  0  0  0  0  0  0  0  0  0  0  0
   25.0172    9.7492    7.7635 C   0  0  2  0  0  0  0  0  0  0  0  0
   25.4122   12.2957   -2.0560 N   0  0  0  0  0  0  0  0  0  0  0  0
   25.1180   11.2016    7.2717 C   0  0  2  0  0  0  0  0  0  0  0  0
   25.9536   11.3104    5.9266 C   0  0  2  0  0  0  0  0  0  0  0  0
   27.3174   10.6615    6.1701 O   0  0  0  0  0  0  0  0  0  0  0  0
   26.0987   12.7893    5.4647 C   0  0  0  0  0  0  0  0  0  0  0  0
   24.8856   13.5246    5.5061 N   0  0  0  0  0  0  0  0  0  0  0  0
   26.0612    8.0504    1.3900 C   0  0  2  0  0  0  0  0  0  0  0  0
   25.4932    8.2929    0.0314 N   0  0  0  0  0  0  0  0  0  0  0  0
   24.8210    7.9113    2.3994 C   0  0  0  0  0  0  0  0  0  0  0  0
   25.3322    7.6277    3.8610 C   0  0  2  0  0  0  0  0  0  0  0  0
   24.2055    7.5183    4.7993 N   0  0  0  0  0  0  0  0  0  0  0  0
   26.2482    8.7725    4.3379 C   0  0  2  0  0  0  0  0  0  0  0  0
   27.4809    8.9394    3.3605 C   0  0  2  0  0  0  0  0  0  0  0  0
   28.2935   10.0456    3.9041 O   0  0  0  0  0  0  0  0  0  0  0  0
   26.9326    9.2937    1.8856 C   0  0  1  0  0  0  0  0  0  0  0  0
   28.0313    9.4442    1.0432 O   0  0  0  0  0  0  0  0  0  0  0  0
   29.5791   10.1444    3.8895 C   0  0  1  0  0  0  0  0  0  0  0  0
   30.1640   11.4401    4.5247 C   0  0  2  0  0  0  0  0  0  0  0  0
   30.2897   12.3963    3.5198 O   0  0  0  0  0  0  0  0  0  0  0  0
   31.4742   10.9097    4.9371 C   0  0  1  0  0  0  0  0  0  0  0  0
   31.2652    9.4588    5.4705 C   0  0  2  0  0  0  0  0  0  0  0  0
   30.2890    9.0444    4.5465 O   0  0  0  0  0  0  0  0  0  0  0  0
   30.9611    9.2719    6.9576 C   0  0  0  0  0  0  0  0  0  0  0  0
   30.9728    7.8764    7.1921 O   0  0  0  0  0  0  0  0  0  0  0  0
   31.9823   10.2251    2.6357 C   0  0  2  0  0  0  0  0  0  0  0  0
   32.3530   10.9608    3.7242 O   0  0  0  0  0  0  0  0  0  0  0  0
   33.0596    9.2744    2.2037 C   0  0  1  0  0  0  0  0  0  0  0  0
   29.7430   10.7548   -2.0066 N   0  0  0  0  0  0  0  0  0  0  0  0
   23.3857    8.5155   -2.0172 O   0  0  0  0  0  0  0  0  0  0  0  0
   32.5852    8.4965    0.9154 C   0  0  2  0  0  0  0  0  0  0  0  0
   32.1938    9.4351   -0.2782 C   0  0  1  0  0  0  0  0  0  0  0  0
   31.1503   10.3328    0.1584 C   0  0  1  0  0  0  0  0  0  0  0  0
   31.5819   11.0936    1.3977 O   0  0  0  0  0  0  0  0  0  0  0  0
   30.7512   11.3358   -1.0111 C   0  0  0  0  0  0  0  0  0  0  0  0
   34.2304    9.9878    1.8771 N   0  0  0  0  0  0  0  0  0  0  0  0
   24.4481    9.7259    8.7544 O   0  0  0  0  0  0  0  0  0  0  0  0
   23.3980   10.7671   -1.7172 C   0  0  0  0  0  0  0  0  0  0  0  0
   33.1166   10.0520   -0.5705 O   0  0  0  0  0  0  0  0  0  0  0  0
   31.6426    7.8955    1.1867 O   0  0  0  0  0  0  0  0  0  0  0  0
   24.6837    9.5417   -0.1531 C   0  0  0  0  0  0  0  0  0  0  0  0
   24.1276   11.7602   -2.3315 C   0  0  0  0  0  0  0  0  0  0  0  0
   24.1509    9.6686   -1.6735 C   0  0  1  0  0  0  0  0  0  0  0  0
   25.7508   11.9942    8.2457 F   0  0  0  0  0  0  0  0  0  0  0  0
  1  2  1  6  0  0  0
  1 10  1  0  0  0  0
  1  3  1  0  0  0  0
  3  4  1  6  0  0  0
  3  6  1  0  0  0  0
  5 46  2  0  0  0  0
  6 42  1  1  0  0  0
  6  8  1  0  0  0  0
  7 47  1  0  0  0  0
  8  9  1  0  0  0  0
  8 49  1  1  0  0  0
  9 10  1  0  0  0  0
  9 11  1  1  0  0  0
 11 12  1  0  0  0  0
 13 14  1  6  0  0  0
 13 15  1  0  0  0  0
 13 21  1  0  0  0  0
 14 46  1  0  0  0  0
 15 16  1  0  0  0  0
 16 17  1  1  0  0  0
 16 18  1  0  0  0  0
 18  2  1  1  0  0  0
 18 19  1  0  0  0  0
 19 20  1  1  0  0  0
 19 21  1  0  0  0  0
 21 22  1  6  0  0  0
 23 20  1  1  0  0  0
 23 24  1  0  0  0  0
 23 28  1  0  0  0  0
 24 25  1  6  0  0  0
 24 26  1  0  0  0  0
 26 27  1  0  0  0  0
 26 32  1  6  0  0  0
 27 28  1  0  0  0  0
 27 29  1  1  0  0  0
 29 30  1  0  0  0  0
 31 32  1  1  0  0  0
 31 33  1  0  0  0  0
 31 39  1  0  0  0  0
 33 36  1  0  0  0  0
 33 41  1  6  0  0  0
 34 40  1  0  0  0  0
 35 48  1  0  0  0  0
 36 37  1  0  0  0  0
 36 45  1  1  0  0  0
 37 38  1  0  0  0  0
 37 44  1  1  0  0  0
 38 39  1  0  0  0  0
 38 40  1  6  0  0  0
 43 47  1  0  0  0  0
 46 48  1  0  0  0  0
 48 43  1  1  0  0  0
M  END
>  <CHROM.1>
126.48713686,-165.98455338,-46.41173687,62.02229233,144.39688758,179.25395975
-61.61038754,-173.44788542,-123.88286766,83.41493592,-54.41892678,-136.99137383
-123.78060231,28.03454645,9.90921445,3.15532996,-2.12254934,-0.00076704,-1.54765184

>  <Name>
ligand

>  <RI>
0

>  <Rbt.Current_Directory>
/home/itssahil/PROJECTS/Mol_Feturizer/New_Systems/rnas/4PDQ

>  <Rbt.Executable>
rbdock ($Id: //depot/dev/client3/rdock/2013.1/src/exe/rbdock.cxx#4 $)

>  <Rbt.Library>
libRbt.so (2013.1, Build901 2013/11/27)

>  <Rbt.Parameter_File>
/export/apps/rDock/src/rDock_2013.1_src/data/scripts/dock_solv.prm

>  <Rbt.Receptor>
prm/pocket_docking_3.prm

>  <SCORE>
-0.162986

>  <SCORE.INTER>
-0.880714

>  <SCORE.INTER.CONST>
1

>  <SCORE.INTER.POLAR>
0

>  <SCORE.INTER.ROT>
13

>  <SCORE.INTER.SOLV>
20.7214

>  <SCORE.INTER.VDW>
-19.7609

>  <SCORE.INTER.norm>
-0.0179738

>  <SCORE.INTRA>
0.653785

>  <SCORE.INTRA.DIHEDRAL>
-7.15405

>  <SCORE.INTRA.DIHEDRAL.0>
34.5115

>  <SCORE.INTRA.POLAR>
0

>  <SCORE.INTRA.POLAR.0>
0

>  <SCORE.INTRA.REPUL>
0.0176975

>  <SCORE.INTRA.REPUL.0>
0

>  <SCORE.INTRA.SOLV>
0.764986

>  <SCORE.INTRA.SOLV.lig_0>
-122.812

>  <SCORE.INTRA.VDW>
3.75983

>  <SCORE.INTRA.VDW.0>
-7.46208

>  <SCORE.INTRA.norm>
0.0133426

>  <SCORE.RESTR>
0.0639437

>  <SCORE.RESTR.CAVITY>
0.0639437

>  <SCORE.RESTR.norm>
0.00130497

>  <SCORE.SYSTEM>
0

>  <SCORE.SYSTEM.CONST>
0

>  <SCORE.SYSTEM.DIHEDRAL>
0

>  <SCORE.SYSTEM.SOLV>
0

>  <SCORE.SYSTEM.norm>
0

>  <SCORE.heavy>
49

>  <SCORE.norm>
-0.00332623

>  <RMSD>
8.599

$$$$
ligand
 OpenBabel11021811513D
libRbt.so/2013.1/901 2013/11/27
 49 52  0  0  0  0  0  0  0  0999 V2000
   24.1599    8.4504    1.8159 C   0  0  2  0  0  0  0  0  0  0  0  0
   24.7061    9.5149    2.5373 O   0  0  0  0  0  0  0  0  0  0  0  0
   25.2696    7.3676    1.5453 C   0  0  2  0  0  0  0  0  0  0  0  0
   25.8232    6.8783    2.8745 N   0  0  0  0  0  0  0  0  0  0  0  0
   23.8156    9.3846    8.9574 O   0  0  0  0  0  0  0  0  0  0  0  0
   26.3866    7.9529    0.6500 C   0  0  2  0  0  0  0  0  0  0  0  0
   27.2094    7.5710   12.1937 N   0  0  0  0  0  0  0  0  0  0  0  0
   25.8004    8.4582   -0.6776 C   0  0  2  0  0  0  0  0  0  0  0  0
   24.6744    9.5525   -0.4448 C   0  0  2  0  0  0  0  0  0  0  0  0
   23.6217    8.9485    0.4866 O   0  0  0  0  0  0  0  0  0  0  0  0
   24.0469   10.0187   -1.7903 C   0  0  0  0  0  0  0  0  0  0  0  0
   23.1684   11.1256   -1.6603 N   0  0  0  0  0  0  0  0  0  0  0  0
   25.3960   10.3884    6.7282 C   0  0  2  0  0  0  0  0  0  0  0  0
   25.9311   10.2518    8.1146 N   0  0  0  0  0  0  0  0  0  0  0  0
   24.9008    8.9318    6.2705 C   0  0  0  0  0  0  0  0  0  0  0  0
   24.2950    8.9893    4.8187 C   0  0  2  0  0  0  0  0  0  0  0  0
   23.8559    7.6564    4.3799 N   0  0  0  0  0  0  0  0  0  0  0  0
   25.3507    9.5030    3.8195 C   0  0  2  0  0  0  0  0  0  0  0  0
   25.8639   10.9379    4.2447 C   0  0  2  0  0  0  0  0  0  0  0  0
   26.8568   11.3402    3.2289 O   0  0  0  0  0  0  0  0  0  0  0  0
   26.5381   10.8383    5.7065 C   0  0  1  0  0  0  0  0  0  0  0  0
   26.9898   12.1077    6.0589 O   0  0  0  0  0  0  0  0  0  0  0  0
   28.0231   10.8249    3.0367 C   0  0  1  0  0  0  0  0  0  0  0  0
   28.9333   11.5746    2.0198 C   0  0  2  0  0  0  0  0  0  0  0  0
   28.7156   11.0267    0.7580 O   0  0  0  0  0  0  0  0  0  0  0  0
   30.2428   11.1796    2.5652 C   0  0  1  0  0  0  0  0  0  0  0  0
   30.1445   11.1915    4.1220 C   0  0  2  0  0  0  0  0  0  0  0  0
   28.8396   10.6810    4.2443 O   0  0  0  0  0  0  0  0  0  0  0  0
   30.4707   12.4924    4.8570 C   0  0  0  0  0  0  0  0  0  0  0  0
   31.7687   12.8695    4.4380 O   0  0  0  0  0  0  0  0  0  0  0  0
   31.8432    9.4955    1.7741 C   0  0  2  0  0  0  0  0  0  0  0  0
   30.5385    9.8180    2.0131 O   0  0  0  0  0  0  0  0  0  0  0  0
   32.5210    8.9448    2.9941 C   0  0  1  0  0  0  0  0  0  0  0  0
   36.2751   11.4049   -0.2060 N   0  0  0  0  0  0  0  0  0  0  0  0
   25.6064   10.8648   11.2845 O   0  0  0  0  0  0  0  0  0  0  0  0
   34.0336    8.6430    2.6610 C   0  0  2  0  0  0  0  0  0  0  0  0
   34.8225    9.8905    2.1315 C   0  0  1  0  0  0  0  0  0  0  0  0
   34.1577   10.3960    0.9534 C   0  0  1  0  0  0  0  0  0  0  0  0
   32.6997   10.6941    1.2474 O   0  0  0  0  0  0  0  0  0  0  0  0
   34.9011   11.6924    0.4058 C   0  0  0  0  0  0  0  0  0  0  0  0
   32.4837    9.8927    4.0364 N   0  0  0  0  0  0  0  0  0  0  0  0
   27.1578    7.1373    0.4349 O   0  0  0  0  0  0  0  0  0  0  0  0
   25.0937    8.6519   11.2643 C   0  0  0  0  0  0  0  0  0  0  0  0
   34.8054   10.7007    2.9445 O   0  0  0  0  0  0  0  0  0  0  0  0
   34.0656    7.8524    1.8261 O   0  0  0  0  0  0  0  0  0  0  0  0
   24.9911    9.7225    9.1562 C   0  0  0  0  0  0  0  0  0  0  0  0
   25.9401    8.2019   12.2529 C   0  0  0  0  0  0  0  0  0  0  0  0
   25.7179    9.6210   10.5960 C   0  0  1  0  0  0  0  0  0  0  0  0
   25.2300    7.3870   -1.3879 F   0  0  0  0  0  0  0  0  0  0  0  0
  1  2  1  6  0  0  0
  1 10  1  0  0  0  0
  1  3  1  0  0  0  0
  3  4  1  1  0  0  0
  3  6  1  0  0  0  0
  5 46  2  0  0  0  0
  6 42  1  6  0  0  0
  6  8  1  0  0  0  0
  7 47  1  0  0  0  0
  8  9  1  0  0  0  0
  8 49  1  1  0  0  0
  9 10  1  0  0  0  0
  9 11  1  6  0  0  0
 11 12  1  0  0  0  0
 13 14  1  1  0  0  0
 13 15  1  0  0  0  0
 13 21  1  0  0  0  0
 14 46  1  0  0  0  0
 15 16  1  0  0  0  0
 16 17  1  6  0  0  0
 16 18  1  0  0  0  0
 18  2  1  6  0  0  0
 18 19  1  0  0  0  0
 19 20  1  6  0  0  0
 19 21  1  0  0  0  0
 21 22  1  1  0  0  0
 23 20  1  1  0  0  0
 23 24  1  0  0  0  0
 23 28  1  0  0  0  0
 24 25  1  6  0  0  0
 24 26  1  0  0  0  0
 26 27  1  0  0  0  0
 26 32  1  6  0  0  0
 27 28  1  0  0  0  0
 27 29  1  6  0  0  0
 29 30  1  0  0  0  0
 31 32  1  1  0  0  0
 31 33  1  0  0  0  0
 31 39  1  0  0  0  0
 33 36  1  0  0  0  0
 33 41  1  1  0  0  0
 34 40  1  0  0  0  0
 35 48  1  0  0  0  0
 36 37  1  0  0  0  0
 36 45  1  6  0  0  0
 37 38  1  0  0  0  0
 37 44  1  1  0  0  0
 38 39  1  0  0  0  0
 38 40  1  1  0  0  0
 43 47  1  0  0  0  0
 46 48  1  0  0  0  0
 48 43  1  1  0  0  0
M  END
>  <CHROM.1>
-58.51868078,-61.17262530,-171.73559489,-58.29901253,-68.74238191,-172.06215167
147.65013503,-55.13973645,86.30725699,69.89535997,-62.95353977,-81.99692260
-93.89041448,28.06006184,9.77824017,3.68250417,2.43075885,0.16758218,1.52209996

>  <Name>
ligand

>  <RI>
0

>  <Rbt.Current_Directory>
/home/itssahil/PROJECTS/Mol_Feturizer/New_Systems/rnas/4PDQ

>  <Rbt.Executable>
rbdock ($Id: //depot/dev/client3/rdock/2013.1/src/exe/rbdock.cxx#4 $)

>  <Rbt.Library>
libRbt.so (2013.1, Build901 2013/11/27)

>  <Rbt.Parameter_File>
/export/apps/rDock/src/rDock_2013.1_src/data/scripts/dock_solv.prm

>  <Rbt.Receptor>
prm/pocket_docking_3.prm

>  <SCORE>
-7.30263

>  <SCORE.INTER>
-3.69965

>  <SCORE.INTER.CONST>
1

>  <SCORE.INTER.POLAR>
0

>  <SCORE.INTER.ROT>
13

>  <SCORE.INTER.SOLV>
21.7299

>  <SCORE.INTER.VDW>
-21.9764

>  <SCORE.INTER.norm>
-0.0755032

>  <SCORE.INTRA>
-3.71155

>  <SCORE.INTRA.DIHEDRAL>
-23.1026

>  <SCORE.INTRA.DIHEDRAL.0>
34.5115

>  <SCORE.INTRA.POLAR>
0

>  <SCORE.INTRA.POLAR.0>
0

>  <SCORE.INTRA.REPUL>
0.0611771

>  <SCORE.INTRA.REPUL.0>
0

>  <SCORE.INTRA.SOLV>
4.9675

>  <SCORE.INTRA.SOLV.lig_0>
-122.812

>  <SCORE.INTRA.VDW>
5.0501

>  <SCORE.INTRA.VDW.0>
-7.46208

>  <SCORE.INTRA.norm>
-0.0757458

>  <SCORE.RESTR>
0.10857

>  <SCORE.RESTR.CAVITY>
0.10857

>  <SCORE.RESTR.norm>
0.00221572

>  <SCORE.SYSTEM>
0

>  <SCORE.SYSTEM.CONST>
0

>  <SCORE.SYSTEM.DIHEDRAL>
0

>  <SCORE.SYSTEM.SOLV>
0

>  <SCORE.SYSTEM.norm>
0

>  <SCORE.heavy>
49

>  <SCORE.norm>
-0.149033

>  <RMSD>
8.627

$$$$
ligand
 OpenBabel11021811513D
libRbt.so/2013.1/901 2013/11/27
 49 52  0  0  0  0  0  0  0  0999 V2000
   26.2646   10.2252    1.4635 C   0  0  2  0  0  0  0  0  0  0  0  0
   25.5161   10.2835    2.6418 O   0  0  0  0  0  0  0  0  0  0  0  0
   25.4109   10.7821    0.2642 C   0  0  2  0  0  0  0  0  0  0  0  0
   25.0060   12.2168    0.5644 N   0  0  0  0  0  0  0  0  0  0  0  0
   24.9033   11.8101    9.3436 O   0  0  0  0  0  0  0  0  0  0  0  0
   24.1742    9.8857    0.0213 C   0  0  2  0  0  0  0  0  0  0  0  0
   27.0934   10.3217   13.5583 N   0  0  0  0  0  0  0  0  0  0  0  0
   24.6075    8.4384   -0.2599 C   0  0  2  0  0  0  0  0  0  0  0  0
   25.4738    7.8423    0.9291 C   0  0  2  0  0  0  0  0  0  0  0  0
   26.6526    8.7876    1.1678 O   0  0  0  0  0  0  0  0  0  0  0  0
   25.9555    6.3966    0.6131 C   0  0  0  0  0  0  0  0  0  0  0  0
   26.6147    5.7619    1.6977 N   0  0  0  0  0  0  0  0  0  0  0  0
   25.5160   10.2285    6.9776 C   0  0  2  0  0  0  0  0  0  0  0  0
   25.7571    9.7462    8.3692 N   0  0  0  0  0  0  0  0  0  0  0  0
   24.9238    8.9891    6.1473 C   0  0  0  0  0  0  0  0  0  0  0  0
   24.6155    9.4190    4.6646 C   0  0  2  0  0  0  0  0  0  0  0  0
   24.0911    8.2862    3.8877 N   0  0  0  0  0  0  0  0  0  0  0  0
   25.9001    9.9227    3.9767 C   0  0  2  0  0  0  0  0  0  0  0  0
   26.5130   11.1441    4.7739 C   0  0  2  0  0  0  0  0  0  0  0  0
   27.7245   11.5537    4.0364 O   0  0  0  0  0  0  0  0  0  0  0  0
   26.8802   10.6598    6.2680 C   0  0  1  0  0  0  0  0  0  0  0  0
   27.4247   11.7453    6.9499 O   0  0  0  0  0  0  0  0  0  0  0  0
   28.7027   10.7979    3.6695 C   0  0  1  0  0  0  0  0  0  0  0  0
   30.0665   11.5169    3.4509 C   0  0  2  0  0  0  0  0  0  0  0  0
   30.1422   11.9047    2.1154 O   0  0  0  0  0  0  0  0  0  0  0  0
   30.9606   10.3830    3.7391 C   0  0  1  0  0  0  0  0  0  0  0  0
   30.3562    9.5781    4.9308 C   0  0  2  0  0  0  0  0  0  0  0  0
   28.9987    9.6886    4.5792 O   0  0  0  0  0  0  0  0  0  0  0  0
   30.7575    9.9785    6.3512 C   0  0  0  0  0  0  0  0  0  0  0  0
   32.1469    9.7307    6.4551 O   0  0  0  0  0  0  0  0  0  0  0  0
   31.9284    8.5388    2.4409 C   0  0  2  0  0  0  0  0  0  0  0  0
   31.0435    9.5776    2.4779 O   0  0  0  0  0  0  0  0  0  0  0  0
   33.3335    8.9843    2.7206 C   0  0  1  0  0  0  0  0  0  0  0  0
   33.0666    6.8139   -1.6188 N   0  0  0  0  0  0  0  0  0  0  0  0
   25.1245    8.7093   10.9865 O   0  0  0  0  0  0  0  0  0  0  0  0
   34.3064    7.7466    2.6114 C   0  0  2  0  0  0  0  0  0  0  0  0
   34.2453    7.0185    1.2240 C   0  0  1  0  0  0  0  0  0  0  0  0
   32.8873    6.5912    0.9819 C   0  0  1  0  0  0  0  0  0  0  0  0
   31.9306    7.7642    1.0817 O   0  0  0  0  0  0  0  0  0  0  0  0
   32.7693    5.8840   -0.4390 C   0  0  0  0  0  0  0  0  0  0  0  0
   33.7353    9.9414    1.7674 N   0  0  0  0  0  0  0  0  0  0  0  0
   23.5940   10.2866   -0.8781 O   0  0  0  0  0  0  0  0  0  0  0  0
   27.0253    9.9521   11.0350 C   0  0  0  0  0  0  0  0  0  0  0  0
   34.5502    7.7674    0.4092 O   0  0  0  0  0  0  0  0  0  0  0  0
   33.9938    6.9743    3.4045 O   0  0  0  0  0  0  0  0  0  0  0  0
   25.3926   10.6803    9.4843 C   0  0  0  0  0  0  0  0  0  0  0  0
   27.3300    9.6347   12.3398 C   0  0  0  0  0  0  0  0  0  0  0  0
   25.6989   10.0130   10.9239 C   0  0  1  0  0  0  0  0  0  0  0  0
   25.3813    8.3895   -1.4330 F   0  0  0  0  0  0  0  0  0  0  0  0
  1  2  1  1  0  0  0
  1 10  1  0  0  0  0
  1  3  1  0  0  0  0
  3  4  1  1  0  0  0
  3  6  1  0  0  0  0
  5 46  2  0  0  0  0
  6 42  1  6  0  0  0
  6  8  1  0  0  0  0
  7 47  1  0  0  0  0
  8  9  1  0  0  0  0
  8 49  1  6  0  0  0
  9 10  1  0  0  0  0
  9 11  1  6  0  0  0
 11 12  1  0  0  0  0
 13 14  1  1  0  0  0
 13 15  1  0  0  0  0
 13 21  1  0  0  0  0
 14 46  1  0  0  0  0
 15 16  1  0  0  0  0
 16 17  1  6  0  0  0
 16 18  1  0  0  0  0
 18  2  1  6  0  0  0
 18 19  1  0  0  0  0
 19 20  1  6  0  0  0
 19 21  1  0  0  0  0
 21 22  1  1  0  0  0
 23 20  1  1  0  0  0
 23 24  1  0  0  0  0
 23 28  1  0  0  0  0
 24 25  1  6  0  0  0
 24 26  1  0  0  0  0
 26 27  1  0  0  0  0
 26 32  1  6  0  0  0
 27 28  1  0  0  0  0
 27 29  1  1  0  0  0
 29 30  1  0  0  0  0
 31 32  1  6  0  0  0
 31 33  1  0  0  0  0
 31 39  1  0  0  0  0
 33 36  1  0  0  0  0
 33 41  1  6  0  0  0
 34 40  1  0  0  0  0
 35 48  1  0  0  0  0
 36 37  1  0  0  0  0
 36 45  1  1  0  0  0
 37 38  1  0  0  0  0
 37 44  1  6  0  0  0
 38 39  1  0  0  0  0
 38 40  1  6  0  0  0
 43 47  1  0  0  0  0
 46 48  1  0  0  0  0
 48 43  1  6  0  0  0
M  END
>  <CHROM.1>
-177.96334803,-148.46262719,-173.71376068,-139.00383803,-52.10483113,-155.72803525
173.30607510,-64.34464550,-57.46077602,-64.06505716,-62.95805528,-72.08471549
128.82991077,28.30206606,9.37449946,3.89951821,1.00176199,0.16569789,-1.71976399

>  <Name>
ligand

>  <RI>
0

>  <Rbt.Current_Directory>
/home/itssahil/PROJECTS/Mol_Feturizer/New_Systems/rnas/4PDQ

>  <Rbt.Executable>
rbdock ($Id: //depot/dev/client3/rdock/2013.1/src/exe/rbdock.cxx#4 $)

>  <Rbt.Library>
libRbt.so (2013.1, Build901 2013/11/27)

>  <Rbt.Parameter_File>
/export/apps/rDock/src/rDock_2013.1_src/data/scripts/dock_solv.prm

>  <Rbt.Receptor>
prm/pocket_docking_4.prm

>  <SCORE>
-11.459

>  <SCORE.INTER>
-1.29505

>  <SCORE.INTER.CONST>
1

>  <SCORE.INTER.POLAR>
0

>  <SCORE.INTER.ROT>
13

>  <SCORE.INTER.SOLV>
16.5914

>  <SCORE.INTER.VDW>
-18.6605

>  <SCORE.INTER.norm>
-0.0264296

>  <SCORE.INTRA>
-10.1871

>  <SCORE.INTRA.DIHEDRAL>
-24.8097

>  <SCORE.INTRA.DIHEDRAL.0>
34.5115

>  <SCORE.INTRA.POLAR>
0

>  <SCORE.INTRA.POLAR.0>
0

>  <SCORE.INTRA.REPUL>
0

>  <SCORE.INTRA.REPUL.0>
0

>  <SCORE.INTRA.SOLV>
0.156421

>  <SCORE.INTRA.SOLV.lig_0>
-122.812

>  <SCORE.INTRA.VDW>
2.1396

>  <SCORE.INTRA.VDW.0>
-7.46208

>  <SCORE.INTRA.norm>
-0.207899

>  <SCORE.RESTR>
0.0231088

>  <SCORE.RESTR.CAVITY>
0.0231088

>  <SCORE.RESTR.norm>
0.000471607

>  <SCORE.SYSTEM>
0

>  <SCORE.SYSTEM.CONST>
0

>  <SCORE.SYSTEM.DIHEDRAL>
0

>  <SCORE.SYSTEM.SOLV>
0

>  <SCORE.SYSTEM.norm>
0

>  <SCORE.heavy>
49

>  <SCORE.norm>
-0.233857

>  <RMSD>
8.632

$$$$
ligand
 OpenBabel11021811513D
libRbt.so/2013.1/901 2013/11/27
 49 52  0  0  0  0  0  0  0  0999 V2000
   24.7740   10.1736    1.8797 C   0  0  2  0  0  0  0  0  0  0  0  0
   25.8399   10.6057    2.6729 O   0  0  0  0  0  0  0  0  0  0  0  0
   25.0603    8.7185    1.3525 C   0  0  2  0  0  0  0  0  0  0  0  0
   25.2496    7.7867    2.5392 N   0  0  0  0  0  0  0  0  0  0  0  0
   26.5775    8.3915    7.9246 O   0  0  0  0  0  0  0  0  0  0  0  0
   26.3005    8.7146    0.4285 C   0  0  2  0  0  0  0  0  0  0  0  0
   27.0034    8.9852   13.2188 N   0  0  0  0  0  0  0  0  0  0  0  0
   26.0936    9.6775   -0.7511 C   0  0  2  0  0  0  0  0  0  0  0  0
   25.8000   11.1574   -0.2578 C   0  0  2  0  0  0  0  0  0  0  0  0
   24.6023   11.1040    0.6924 O   0  0  0  0  0  0  0  0  0  0  0  0
   25.5367   12.1150   -1.4559 C   0  0  0  0  0  0  0  0  0  0  0  0
   26.6722   12.3278   -2.2801 N   0  0  0  0  0  0  0  0  0  0  0  0
   27.1650   11.0039    6.7824 C   0  0  2  0  0  0  0  0  0  0  0  0
   27.3564   10.6806    8.2267 N   0  0  0  0  0  0  0  0  0  0  0  0
   25.6153   10.7541    6.4468 C   0  0  0  0  0  0  0  0  0  0  0  0
   25.3182   11.0968    4.9393 C   0  0  2  0  0  0  0  0  0  0  0  0
   23.9052   10.8526    4.6141 N   0  0  0  0  0  0  0  0  0  0  0  0
   26.1852   10.2220    4.0120 C   0  0  2  0  0  0  0  0  0  0  0  0
   27.7214   10.4415    4.3202 C   0  0  2  0  0  0  0  0  0  0  0  0
   28.4599    9.5727    3.3826 O   0  0  0  0  0  0  0  0  0  0  0  0
   28.0113   10.0215    5.8502 C   0  0  1  0  0  0  0  0  0  0  0  0
   29.3680   10.2141    6.0990 O   0  0  0  0  0  0  0  0  0  0  0  0
   29.6558    9.7530    2.9352 C   0  0  1  0  0  0  0  0  0  0  0  0
   29.8416   10.9634    1.9734 C   0  0  2  0  0  0  0  0  0  0  0  0
   29.6481   10.5138    0.6694 O   0  0  0  0  0  0  0  0  0  0  0  0
   31.2610   11.2442    2.2463 C   0  0  1  0  0  0  0  0  0  0  0  0
   31.5110   11.0447    3.7731 C   0  0  2  0  0  0  0  0  0  0  0  0
   30.6801    9.9266    3.9678 O   0  0  0  0  0  0  0  0  0  0  0  0
   31.3164   12.2451    4.7005 C   0  0  0  0  0  0  0  0  0  0  0  0
   32.1448   13.2750    4.1948 O   0  0  0  0  0  0  0  0  0  0  0  0
   33.3654   10.0984    1.7155 C   0  0  2  0  0  0  0  0  0  0  0  0
   32.0516   10.2930    1.4000 O   0  0  0  0  0  0  0  0  0  0  0  0
   34.1711   11.3567    1.5779 C   0  0  1  0  0  0  0  0  0  0  0  0
   35.8121    7.7583   -1.2461 N   0  0  0  0  0  0  0  0  0  0  0  0
   28.1665   10.1026   10.7136 O   0  0  0  0  0  0  0  0  0  0  0  0
   35.6833   11.0483    1.9069 C   0  0  2  0  0  0  0  0  0  0  0  0
   36.3040    9.9186    1.0140 C   0  0  1  0  0  0  0  0  0  0  0  0
   35.5185    8.7170    1.1706 C   0  0  1  0  0  0  0  0  0  0  0  0
   34.0585    8.9871    0.8600 O   0  0  0  0  0  0  0  0  0  0  0  0
   36.0879    7.5532    0.2462 C   0  0  0  0  0  0  0  0  0  0  0  0
   34.1004   11.8327    0.2532 N   0  0  0  0  0  0  0  0  0  0  0  0
   26.4630    7.6569    0.0271 O   0  0  0  0  0  0  0  0  0  0  0  0
   26.0917    9.1873   10.8447 C   0  0  0  0  0  0  0  0  0  0  0  0
   36.2534   10.2556   -0.0821 O   0  0  0  0  0  0  0  0  0  0  0  0
   35.7453   10.6814    2.9954 O   0  0  0  0  0  0  0  0  0  0  0  0
   27.0045    9.2899    8.6636 C   0  0  0  0  0  0  0  0  0  0  0  0
   26.2038    8.6341   12.1007 C   0  0  0  0  0  0  0  0  0  0  0  0
   27.2772    9.0916   10.2441 C   0  0  1  0  0  0  0  0  0  0  0  0
   25.0042    9.2518   -1.5316 F   0  0  0  0  0  0  0  0  0  0  0  0
  1  2  1  1  0  0  0
  1 10  1  0  0  0  0
  1  3  1  0  0  0  0
  3  4  1  1  0  0  0
  3  6  1  0  0  0  0
  5 46  2  0  0  0  0
  6 42  1  6  0  0  0
  6  8  1  0  0  0  0
  7 47  1  0  0  0  0
  8  9  1  0  0  0  0
  8 49  1  1  0  0  0
  9 10  1  0  0  0  0
  9 11  1  6  0  0  0
 11 12  1  0  0  0  0
 13 14  1  1  0  0  0
 13 15  1  0  0  0  0
 13 21  1  0  0  0  0
 14 46  1  0  0  0  0
 15 16  1  0  0  0  0
 16 17  1  6  0  0  0
 16 18  1  0  0  0  0
 18  2  1  6  0  0  0
 18 19  1  0  0  0  0
 19 20  1  6  0  0  0
 19 21  1  0  0  0  0
 21 22  1  1  0  0  0
 23 20  1  1  0  0  0
 23 24  1  0  0  0  0
 23 28  1  0  0  0  0
 24 25  1  6  0  0  0
 24 26  1  0  0  0  0
 26 27  1  0  0  0  0
 26 32  1  6  0  0  0
 27 28  1  0  0  0  0
 27 29  1  1  0  0  0
 29 30  1  0  0  0  0
 31 32  1  6  0  0  0
 31 33  1  0  0  0  0
 31 39  1  0  0  0  0
 33 36  1  0  0  0  0
 33 41  1  6  0  0  0
 34 40  1  0  0  0  0
 35 48  1  0  0  0  0
 36 37  1  0  0  0  0
 36 45  1  1  0  0  0
 37 38  1  0  0  0  0
 37 44  1  6  0  0  0
 38 39  1  0  0  0  0
 38 40  1  6  0  0  0
 43 47  1  0  0  0  0
 46 48  1  0  0  0  0
 48 43  1  1  0  0  0
M  END
>  <CHROM.1>
-74.83480237,-83.46210303,-66.72000125,58.74412598,153.09719680,-68.25581746
-163.08743505,-55.32000764,-62.90625391,-72.27647762,61.86891632,-78.54659868
160.15720030,29.18871172,10.10124838,3.38701292,2.39612007,0.00433078,1.61136005

>  <Name>
ligand

>  <RI>
0

>  <Rbt.Current_Directory>
/home/itssahil/PROJECTS/Mol_Feturizer/New_Systems/rnas/4PDQ

>  <Rbt.Executable>
rbdock ($Id: //depot/dev/client3/rdock/2013.1/src/exe/rbdock.cxx#4 $)

>  <Rbt.Library>
libRbt.so (2013.1, Build901 2013/11/27)

>  <Rbt.Parameter_File>
/export/apps/rDock/src/rDock_2013.1_src/data/scripts/dock_solv.prm

>  <Rbt.Receptor>
prm/pocket_docking_2.prm

>  <SCORE>
4.2431

>  <SCORE.INTER>
5.88398

>  <SCORE.INTER.CONST>
1

>  <SCORE.INTER.POLAR>
0

>  <SCORE.INTER.ROT>
13

>  <SCORE.INTER.SOLV>
24.7736

>  <SCORE.INTER.VDW>
-16.6019

>  <SCORE.INTER.norm>
0.120081

>  <SCORE.INTRA>
-7.33195

>  <SCORE.INTRA.DIHEDRAL>
-22.3248

>  <SCORE.INTRA.DIHEDRAL.0>
34.5115

>  <SCORE.INTRA.POLAR>
0

>  <SCORE.INTRA.POLAR.0>
0

>  <SCORE.INTRA.REPUL>
0

>  <SCORE.INTRA.REPUL.0>
0

>  <SCORE.INTRA.SOLV>
2.78324

>  <SCORE.INTRA.SOLV.lig_0>
-122.812

>  <SCORE.INTRA.VDW>
2.43884

>  <SCORE.INTRA.VDW.0>
-7.46208

>  <SCORE.INTRA.norm>
-0.149632

>  <SCORE.RESTR>
5.69107

>  <SCORE.RESTR.CAVITY>
5.69107

>  <SCORE.RESTR.norm>
0.116144

>  <SCORE.SYSTEM>
0

>  <SCORE.SYSTEM.CONST>
0

>  <SCORE.SYSTEM.DIHEDRAL>
0

>  <SCORE.SYSTEM.SOLV>
0

>  <SCORE.SYSTEM.norm>
0

>  <SCORE.heavy>
49

>  <SCORE.norm>
0.0865939

>  <RMSD>
8.652

$$$$
ligand
 OpenBabel11021811513D
libRbt.so/2013.1/901 2013/11/27
 49 52  0  0  0  0  0  0  0  0999 V2000
   32.5898    7.9035    1.1819 C   0  0  2  0  0  0  0  0  0  0  0  0
   32.9203    8.3817    2.4524 O   0  0  0  0  0  0  0  0  0  0  0  0
   33.6501    6.8340    0.7248 C   0  0  2  0  0  0  0  0  0  0  0  0
   33.6734    5.6937    1.7307 N   0  0  0  0  0  0  0  0  0  0  0  0
   29.7416   12.3540    5.1959 O   0  0  0  0  0  0  0  0  0  0  0  0
   35.0447    7.4862    0.5787 C   0  0  2  0  0  0  0  0  0  0  0  0
   26.8534   14.1258    8.8556 N   0  0  0  0  0  0  0  0  0  0  0  0
   34.9914    8.6471   -0.4268 C   0  0  2  0  0  0  0  0  0  0  0  0
   33.9297    9.7470    0.0004 C   0  0  2  0  0  0  0  0  0  0  0  0
   32.5814    9.0480    0.1845 O   0  0  0  0  0  0  0  0  0  0  0  0
   33.8414   10.8912   -1.0506 C   0  0  0  0  0  0  0  0  0  0  0  0
   32.8992   11.9003   -0.7218 N   0  0  0  0  0  0  0  0  0  0  0  0
   31.3785   10.1271    6.1102 C   0  0  2  0  0  0  0  0  0  0  0  0
   30.7782   11.1343    7.0333 N   0  0  0  0  0  0  0  0  0  0  0  0
   32.5091   10.8850    5.2594 C   0  0  0  0  0  0  0  0  0  0  0  0
   33.2152    9.8840    4.2707 C   0  0  2  0  0  0  0  0  0  0  0  0
   34.2398   10.5712    3.4709 N   0  0  0  0  0  0  0  0  0  0  0  0
   32.1821    9.2684    3.3060 C   0  0  2  0  0  0  0  0  0  0  0  0
   31.0491    8.5159    4.1141 C   0  0  2  0  0  0  0  0  0  0  0  0
   30.1225    7.9605    3.1080 O   0  0  0  0  0  0  0  0  0  0  0  0
   30.2989    9.5763    5.0701 C   0  0  1  0  0  0  0  0  0  0  0  0
   29.3017    8.8972    5.7659 O   0  0  0  0  0  0  0  0  0  0  0  0
   29.3497    8.6220    2.3155 C   0  0  1  0  0  0  0  0  0  0  0  0
   30.0636    9.4063    1.1753 C   0  0  2  0  0  0  0  0  0  0  0  0
   30.3371   10.6909    1.6390 O   0  0  0  0  0  0  0  0  0  0  0  0
   28.9691    9.4057    0.1904 C   0  0  1  0  0  0  0  0  0  0  0  0
   28.2614    8.0168    0.2510 C   0  0  2  0  0  0  0  0  0  0  0  0
   28.3255    7.8199    1.6422 O   0  0  0  0  0  0  0  0  0  0  0  0
   28.7862    6.8982   -0.6503 C   0  0  0  0  0  0  0  0  0  0  0  0
   30.1938    6.8990   -0.5042 O   0  0  0  0  0  0  0  0  0  0  0  0
   27.1052   10.9141   -0.3333 C   0  0  2  0  0  0  0  0  0  0  0  0
   28.0601   10.5366    0.5662 O   0  0  0  0  0  0  0  0  0  0  0  0
   26.3182   12.0993    0.1433 C   0  0  1  0  0  0  0  0  0  0  0  0
   22.9581    9.1614   -2.9909 N   0  0  0  0  0  0  0  0  0  0  0  0
   30.4309   13.9875    8.1093 O   0  0  0  0  0  0  0  0  0  0  0  0
   25.2032   12.4478   -0.9176 C   0  0  2  0  0  0  0  0  0  0  0  0
   24.2337   11.2548   -1.2268 C   0  0  1  0  0  0  0  0  0  0  0  0
   25.0121   10.1310   -1.6923 C   0  0  1  0  0  0  0  0  0  0  0  0
   26.0929    9.7756   -0.6890 O   0  0  0  0  0  0  0  0  0  0  0  0
   24.0709    8.8797   -1.9774 C   0  0  0  0  0  0  0  0  0  0  0  0
   25.6812   11.7968    1.3635 N   0  0  0  0  0  0  0  0  0  0  0  0
   35.7869    6.7003    0.2075 O   0  0  0  0  0  0  0  0  0  0  0  0
   28.5013   14.0193    6.9110 C   0  0  0  0  0  0  0  0  0  0  0  0
   23.7011   10.9604   -0.2536 O   0  0  0  0  0  0  0  0  0  0  0  0
   25.7228   12.7173   -1.9078 O   0  0  0  0  0  0  0  0  0  0  0  0
   29.9621   12.2265    6.4087 C   0  0  0  0  0  0  0  0  0  0  0  0
   27.7317   14.6419    7.8682 C   0  0  0  0  0  0  0  0  0  0  0  0
   29.3720   13.2256    7.5334 C   0  0  1  0  0  0  0  0  0  0  0  0
   34.6339    8.1636   -1.6980 F   0  0  0  0  0  0  0  0  0  0  0  0
  1  2  1  1  0  0  0
  1 10  1  0  0  0  0
  1  3  1  0  0  0  0
  3  4  1  1  0  0  0
  3  6  1  0  0  0  0
  5 46  2  0  0  0  0
  6 42  1  6  0  0  0
  6  8  1  0  0  0  0
  7 47  1  0  0  0  0
  8  9  1  0  0  0  0
  8 49  1  6  0  0  0
  9 10  1  0  0  0  0
  9 11  1  6  0  0  0
 11 12  1  0  0  0  0
 13 14  1  1  0  0  0
 13 15  1  0  0  0  0
 13 21  1  0  0  0  0
 14 46  1  0  0  0  0
 15 16  1  0  0  0  0
 16 17  1  6  0  0  0
 16 18  1  0  0  0  0
 18  2  1  6  0  0  0
 18 19  1  0  0  0  0
 19 20  1  6  0  0  0
 19 21  1  0  0  0  0
 21 22  1  1  0  0  0
 23 20  1  6  0  0  0
 23 24  1  0  0  0  0
 23 28  1  0  0  0  0
 24 25  1  1  0  0  0
 24 26  1  0  0  0  0
 26 27  1  0  0  0  0
 26 32  1  1  0  0  0
 27 28  1  0  0  0  0
 27 29  1  6  0  0  0
 29 30  1  0  0  0  0
 31 32  1  1  0  0  0
 31 33  1  0  0  0  0
 31 39  1  0  0  0  0
 33 36  1  0  0  0  0
 33 41  1  1  0  0  0
 34 40  1  0  0  0  0
 35 48  1  0  0  0  0
 36 37  1  0  0  0  0
 36 45  1  6  0  0  0
 37 38  1  0  0  0  0
 37 44  1  1  0  0  0
 38 39  1  0  0  0  0
 38 40  1  1  0  0  0
 43 47  1  0  0  0  0
 46 48  1  0  0  0  0
 48 43  1  6  0  0  0
M  END
>  <CHROM.1>
-173.82658438,-157.85594418,179.65515341,68.40727589,-67.15485825,70.56984431
167.71136664,46.71045661,-177.01232349,57.27643351,-61.06601197,-75.83546425
-111.27395895,29.86344272,10.00522961,1.95869619,-0.16539506,0.33954114,-2.01730961

>  <Name>
ligand

>  <RI>
0

>  <Rbt.Current_Directory>
/home/itssahil/PROJECTS/Mol_Feturizer/New_Systems/rnas/4PDQ

>  <Rbt.Executable>
rbdock ($Id: //depot/dev/client3/rdock/2013.1/src/exe/rbdock.cxx#4 $)

>  <Rbt.Library>
libRbt.so (2013.1, Build901 2013/11/27)

>  <Rbt.Parameter_File>
/export/apps/rDock/src/rDock_2013.1_src/data/scripts/dock_solv.prm

>  <Rbt.Receptor>
prm/pocket_docking_4.prm

>  <SCORE>
-10.5473

>  <SCORE.INTER>
-0.543261

>  <SCORE.INTER.CONST>
1

>  <SCORE.INTER.POLAR>
0

>  <SCORE.INTER.ROT>
13

>  <SCORE.INTER.SOLV>
27.0107

>  <SCORE.INTER.VDW>
-21.6324

>  <SCORE.INTER.norm>
-0.011087

>  <SCORE.INTRA>
-10.0741

>  <SCORE.INTRA.DIHEDRAL>
-28.0808

>  <SCORE.INTRA.DIHEDRAL.0>
34.5115

>  <SCORE.INTRA.POLAR>
0

>  <SCORE.INTRA.POLAR.0>
0

>  <SCORE.INTRA.REPUL>
0.180968

>  <SCORE.INTRA.REPUL.0>
0

>  <SCORE.INTRA.SOLV>
0.504572

>  <SCORE.INTRA.SOLV.lig_0>
-122.812

>  <SCORE.INTRA.VDW>
2.80922

>  <SCORE.INTRA.VDW.0>
-7.46208

>  <SCORE.INTRA.norm>
-0.205593

>  <SCORE.RESTR>
0.0700491

>  <SCORE.RESTR.CAVITY>
0.0700491

>  <SCORE.RESTR.norm>
0.00142957

>  <SCORE.SYSTEM>
0

>  <SCORE.SYSTEM.CONST>
0

>  <SCORE.SYSTEM.DIHEDRAL>
0

>  <SCORE.SYSTEM.SOLV>
0

>  <SCORE.SYSTEM.norm>
0

>  <SCORE.heavy>
49

>  <SCORE.norm>
-0.21525

>  <RMSD>
8.680

$$$$
ligand
 OpenBabel11021811513D
libRbt.so/2013.1/901 2013/11/27
 49 52  0  0  0  0  0  0  0  0999 V2000
   24.4858    8.9290    1.6567 C   0  0  2  0  0  0  0  0  0  0  0  0
   25.6465    9.3718    2.2960 O   0  0  0  0  0  0  0  0  0  0  0  0
   24.7965    7.6209    0.8385 C   0  0  2  0  0  0  0  0  0  0  0  0
   25.3199    6.5528    1.7860 N   0  0  0  0  0  0  0  0  0  0  0  0
   26.9781   10.8310    8.7351 O   0  0  0  0  0  0  0  0  0  0  0  0
   25.8104    7.9197   -0.2905 C   0  0  2  0  0  0  0  0  0  0  0  0
   27.6659    6.0124   11.8824 N   0  0  0  0  0  0  0  0  0  0  0  0
   25.2683    9.0148   -1.2224 C   0  0  2  0  0  0  0  0  0  0  0  0
   24.9411   10.3514   -0.4312 C   0  0  2  0  0  0  0  0  0  0  0  0
   23.9796    9.9981    0.7050 O   0  0  0  0  0  0  0  0  0  0  0  0
   24.3408   11.4367   -1.3711 C   0  0  0  0  0  0  0  0  0  0  0  0
   25.2082   11.8263   -2.4245 N   0  0  0  0  0  0  0  0  0  0  0  0
   27.4555    9.4152    6.2366 C   0  0  2  0  0  0  0  0  0  0  0  0
   27.9313    8.9199    7.5615 N   0  0  0  0  0  0  0  0  0  0  0  0
   25.9690    8.8463    6.0290 C   0  0  0  0  0  0  0  0  0  0  0  0
   25.3776    9.3440    4.6576 C   0  0  2  0  0  0  0  0  0  0  0  0
   24.0230    8.8127    4.4463 N   0  0  0  0  0  0  0  0  0  0  0  0
   26.2681    8.8741    3.4900 C   0  0  2  0  0  0  0  0  0  0  0  0
   27.7442    9.4152    3.6665 C   0  0  2  0  0  0  0  0  0  0  0  0
   28.5081    8.9207    2.5041 O   0  0  0  0  0  0  0  0  0  0  0  0
   28.3495    8.8382    5.0457 C   0  0  1  0  0  0  0  0  0  0  0  0
   29.6499    9.3187    5.1786 O   0  0  0  0  0  0  0  0  0  0  0  0
   29.4684    9.5257    1.8920 C   0  0  1  0  0  0  0  0  0  0  0  0
   29.1498   10.9658    1.3928 C   0  0  2  0  0  0  0  0  0  0  0  0
   28.6603   10.8747    0.0921 O   0  0  0  0  0  0  0  0  0  0  0  0
   30.5157   11.5150    1.4221 C   0  0  1  0  0  0  0  0  0  0  0  0
   31.2363   10.9584    2.6887 C   0  0  2  0  0  0  0  0  0  0  0  0
   30.7061    9.6557    2.6646 O   0  0  0  0  0  0  0  0  0  0  0  0
   31.1203   11.7490    3.9927 C   0  0  0  0  0  0  0  0  0  0  0  0
   29.7360   11.9289    4.2251 O   0  0  0  0  0  0  0  0  0  0  0  0
   32.4702   11.4562   -0.0611 C   0  0  2  0  0  0  0  0  0  0  0  0
   31.1726   11.0856    0.1453 O   0  0  0  0  0  0  0  0  0  0  0  0
   32.9654   11.0456   -1.4165 C   0  0  1  0  0  0  0  0  0  0  0  0
   37.2966   10.9997    1.8962 N   0  0  0  0  0  0  0  0  0  0  0  0
   28.1390   10.0400   11.1780 O   0  0  0  0  0  0  0  0  0  0  0  0
   34.4811   11.4583   -1.5669 C   0  0  2  0  0  0  0  0  0  0  0  0
   35.4103   10.8570   -0.4561 C   0  0  1  0  0  0  0  0  0  0  0  0
   34.9200   11.2734    0.8368 C   0  0  1  0  0  0  0  0  0  0  0  0
   33.4626   10.8882    1.0065 O   0  0  0  0  0  0  0  0  0  0  0  0
   35.8096   10.6486    1.9991 C   0  0  0  0  0  0  0  0  0  0  0  0
   32.8773    9.6462   -1.5591 N   0  0  0  0  0  0  0  0  0  0  0  0
   25.9880    6.9656   -0.8942 O   0  0  0  0  0  0  0  0  0  0  0  0
   27.3876    8.0522   10.3757 C   0  0  0  0  0  0  0  0  0  0  0  0
   35.3584    9.7122   -0.5223 O   0  0  0  0  0  0  0  0  0  0  0  0
   34.5516   12.6026   -1.4736 O   0  0  0  0  0  0  0  0  0  0  0  0
   27.6097    9.7651    8.7578 C   0  0  0  0  0  0  0  0  0  0  0  0
   28.0224    7.2580   11.3043 C   0  0  0  0  0  0  0  0  0  0  0  0
   28.1776    9.0925   10.1131 C   0  0  1  0  0  0  0  0  0  0  0  0
   24.0868    8.5732   -1.8439 F   0  0  0  0  0  0  0  0  0  0  0  0
  1  2  1  6  0  0  0
  1 10  1  0  0  0  0
  1  3  1  0  0  0  0
  3  4  1  1  0  0  0
  3  6  1  0  0  0  0
  5 46  2  0  0  0  0
  6 42  1  6  0  0  0
  6  8  1  0  0  0  0
  7 47  1  0  0  0  0
  8  9  1  0  0  0  0
  8 49  1  1  0  0  0
  9 10  1  0  0  0  0
  9 11  1  6  0  0  0
 11 12  1  0  0  0  0
 13 14  1  1  0  0  0
 13 15  1  0  0  0  0
 13 21  1  0  0  0  0
 14 46  1  0  0  0  0
 15 16  1  0  0  0  0
 16 17  1  6  0  0  0
 16 18  1  0  0  0  0
 18  2  1  6  0  0  0
 18 19  1  0  0  0  0
 19 20  1  6  0  0  0
 19 21  1  0  0  0  0
 21 22  1  1  0  0  0
 23 20  1  1  0  0  0
 23 24  1  0  0  0  0
 23 28  1  0  0  0  0
 24 25  1  6  0  0  0
 24 26  1  0  0  0  0
 26 27  1  0  0  0  0
 26 32  1  6  0  0  0
 27 28  1  0  0  0  0
 27 29  1  1  0  0  0
 29 30  1  0  0  0  0
 31 32  1  1  0  0  0
 31 33  1  0  0  0  0
 31 39  1  0  0  0  0
 33 36  1  0  0  0  0
 33 41  1  1  0  0  0
 34 40  1  0  0  0  0
 35 48  1  0  0  0  0
 36 37  1  0  0  0  0
 36 45  1  1  0  0  0
 37 38  1  0  0  0  0
 37 44  1  1  0  0  0
 38 39  1  0  0  0  0
 38 40  1  1  0  0  0
 43 47  1  0  0  0  0
 46 48  1  0  0  0  0
 48 43  1  1  0  0  0
M  END
>  <CHROM.1>
-77.83931163,-73.68928368,-61.01295178,-88.11858804,145.75036605,-53.86414449
-178.99800119,54.08645644,-175.84202269,57.10002083,-176.67978385,-75.79107770
-14.26394882,28.89804655,9.78210488,2.76467038,2.22613519,0.20672775,1.68729742

>  <Name>
ligand

>  <RI>
0

>  <Rbt.Current_Directory>
/home/itssahil/PROJECTS/Mol_Feturizer/New_Systems/rnas/4PDQ

>  <Rbt.Executable>
rbdock ($Id: //depot/dev/client3/rdock/2013.1/src/exe/rbdock.cxx#4 $)

>  <Rbt.Library>
libRbt.so (2013.1, Build901 2013/11/27)

>  <Rbt.Parameter_File>
/export/apps/rDock/src/rDock_2013.1_src/data/scripts/dock_solv.prm

>  <Rbt.Receptor>
prm/pocket_docking_3.prm

>  <SCORE>
-13.7453

>  <SCORE.INTER>
-3.11008

>  <SCORE.INTER.CONST>
1

>  <SCORE.INTER.POLAR>
0

>  <SCORE.INTER.ROT>
13

>  <SCORE.INTER.SOLV>
21.537

>  <SCORE.INTER.VDW>
-21.519

>  <SCORE.INTER.norm>
-0.0634711

>  <SCORE.INTRA>
-10.6353

>  <SCORE.INTRA.DIHEDRAL>
-24.8253

>  <SCORE.INTRA.DIHEDRAL.0>
34.5115

>  <SCORE.INTRA.POLAR>
0

>  <SCORE.INTRA.POLAR.0>
0

>  <SCORE.INTRA.REPUL>
0

>  <SCORE.INTRA.REPUL.0>
0

>  <SCORE.INTRA.SOLV>
0.682831

>  <SCORE.INTRA.SOLV.lig_0>
-122.812

>  <SCORE.INTRA.VDW>
1.43596

>  <SCORE.INTRA.VDW.0>
-7.46208

>  <SCORE.INTRA.norm>
-0.217046

>  <SCORE.RESTR>
0

>  <SCORE.RESTR.CAVITY>
0

>  <SCORE.RESTR.norm>
0

>  <SCORE.SYSTEM>
0

>  <SCORE.SYSTEM.CONST>
0

>  <SCORE.SYSTEM.DIHEDRAL>
0

>  <SCORE.SYSTEM.SOLV>
0

>  <SCORE.SYSTEM.norm>
0

>  <SCORE.heavy>
49

>  <SCORE.norm>
-0.280517

>  <RMSD>
8.685

$$$$
ligand
 OpenBabel11021811513D
libRbt.so/2013.1/901 2013/11/27
 49 52  0  0  0  0  0  0  0  0999 V2000
   26.5056   12.2654    9.9537 C   0  0  2  0  0  0  0  0  0  0  0  0
   27.8664   12.2080    9.6424 O   0  0  0  0  0  0  0  0  0  0  0  0
   26.2240   13.5094   10.8758 C   0  0  2  0  0  0  0  0  0  0  0  0
   26.6558   14.7748   10.1514 N   0  0  0  0  0  0  0  0  0  0  0  0
   31.0195   10.9489    4.9331 O   0  0  0  0  0  0  0  0  0  0  0  0
   26.9584   13.3549   12.2281 C   0  0  2  0  0  0  0  0  0  0  0  0
   33.6396    8.9862    2.4024 N   0  0  0  0  0  0  0  0  0  0  0  0
   26.5208   12.0605   12.9314 C   0  0  2  0  0  0  0  0  0  0  0  0
   26.7880   10.7819   12.0295 C   0  0  2  0  0  0  0  0  0  0  0  0
   26.0889   11.0030   10.6869 O   0  0  0  0  0  0  0  0  0  0  0  0
   26.2917    9.4812   12.7249 C   0  0  0  0  0  0  0  0  0  0  0  0
   26.9939    9.1643   13.9167 N   0  0  0  0  0  0  0  0  0  0  0  0
   28.3156   11.9490    5.3373 C   0  0  2  0  0  0  0  0  0  0  0  0
   28.9798   11.9030    4.0017 N   0  0  0  0  0  0  0  0  0  0  0  0
   28.9898   13.1541    6.1556 C   0  0  0  0  0  0  0  0  0  0  0  0
   28.3270   13.2906    7.5770 C   0  0  2  0  0  0  0  0  0  0  0  0
   28.9502   14.3789    8.3445 N   0  0  0  0  0  0  0  0  0  0  0  0
   28.4955   11.9808    8.3726 C   0  0  2  0  0  0  0  0  0  0  0  0
   27.8443   10.7697    7.5903 C   0  0  2  0  0  0  0  0  0  0  0  0
   28.0506    9.5744    8.4318 O   0  0  0  0  0  0  0  0  0  0  0  0
   28.5846   10.6106    6.1662 C   0  0  1  0  0  0  0  0  0  0  0  0
   28.0033    9.5363    5.4972 O   0  0  0  0  0  0  0  0  0  0  0  0
   28.1165    8.3487    8.0365 C   0  0  1  0  0  0  0  0  0  0  0  0
   29.5500    7.7508    7.9267 C   0  0  2  0  0  0  0  0  0  0  0  0
   30.0134    7.9721    6.6320 O   0  0  0  0  0  0  0  0  0  0  0  0
   29.2142    6.3345    8.1489 C   0  0  1  0  0  0  0  0  0  0  0  0
   28.1084    6.2636    9.2469 C   0  0  2  0  0  0  0  0  0  0  0  0
   27.3683    7.3952    8.8591 O   0  0  0  0  0  0  0  0  0  0  0  0
   28.5463    6.1675   10.7090 C   0  0  0  0  0  0  0  0  0  0  0  0
   29.2990    4.9742   10.8195 O   0  0  0  0  0  0  0  0  0  0  0  0
   28.4002    4.4788    6.7642 C   0  0  2  0  0  0  0  0  0  0  0  0
   28.7554    5.7954    6.8279 O   0  0  0  0  0  0  0  0  0  0  0  0
   28.0836    4.0470    5.3627 C   0  0  1  0  0  0  0  0  0  0  0  0
   25.1706    0.9527    8.8579 N   0  0  0  0  0  0  0  0  0  0  0  0
   30.7118   12.6327    1.8378 O   0  0  0  0  0  0  0  0  0  0  0  0
   27.6332    2.5346    5.3703 C   0  0  2  0  0  0  0  0  0  0  0  0
   26.4075    2.2476    6.3053 C   0  0  1  0  0  0  0  0  0  0  0  0
   26.7395    2.6618    7.6483 C   0  0  1  0  0  0  0  0  0  0  0  0
   27.1767    4.1143    7.6683 O   0  0  0  0  0  0  0  0  0  0  0  0
   25.5051    2.4289    8.6256 C   0  0  0  0  0  0  0  0  0  0  0  0
   27.0208    4.8169    4.8488 N   0  0  0  0  0  0  0  0  0  0  0  0
   26.7059   14.2489   12.8938 O   0  0  0  0  0  0  0  0  0  0  0  0
   32.2609   11.1282    2.5425 C   0  0  0  0  0  0  0  0  0  0  0  0
   25.5166    2.8689    5.9341 O   0  0  0  0  0  0  0  0  0  0  0  0
   28.5081    1.9025    5.7680 O   0  0  0  0  0  0  0  0  0  0  0  0
   30.3784   11.3637    3.9571 C   0  0  0  0  0  0  0  0  0  0  0  0
   32.4578    9.7711    2.4180 C   0  0  0  0  0  0  0  0  0  0  0  0
   30.9534   11.3662    2.4469 C   0  0  1  0  0  0  0  0  0  0  0  0
   25.1456   12.1135   13.2198 F   0  0  0  0  0  0  0  0  0  0  0  0
  1  2  1  1  0  0  0
  1 10  1  0  0  0  0
  1  3  1  0  0  0  0
  3  4  1  6  0  0  0
  3  6  1  0  0  0  0
  5 46  2  0  0  0  0
  6 42  1  1  0  0  0
  6  8  1  0  0  0  0
  7 47  1  0  0  0  0
  8  9  1  0  0  0  0
  8 49  1  6  0  0  0
  9 10  1  0  0  0  0
  9 11  1  1  0  0  0
 11 12  1  0  0  0  0
 13 14  1  6  0  0  0
 13 15  1  0  0  0  0
 13 21  1  0  0  0  0
 14 46  1  0  0  0  0
 15 16  1  0  0  0  0
 16 17  1  1  0  0  0
 16 18  1  0  0  0  0
 18  2  1  1  0  0  0
 18 19  1  0  0  0  0
 19 20  1  1  0  0  0
 19 21  1  0  0  0  0
 21 22  1  6  0  0  0
 23 20  1  1  0  0  0
 23 24  1  0  0  0  0
 23 28  1  0  0  0  0
 24 25  1  6  0  0  0
 24 26  1  0  0  0  0
 26 27  1  0  0  0  0
 26 32  1  6  0  0  0
 27 28  1  0  0  0  0
 27 29  1  1  0  0  0
 29 30  1  0  0  0  0
 31 32  1  6  0  0  0
 31 33  1  0  0  0  0
 31 39  1  0  0  0  0
 33 36  1  0  0  0  0
 33 41  1  1  0  0  0
 34 40  1  0  0  0  0
 35 48  1  0  0  0  0
 36 37  1  0  0  0  0
 36 45  1  1  0  0  0
 37 38  1  0  0  0  0
 37 44  1  6  0  0  0
 38 39  1  0  0  0  0
 38 40  1  1  0  0  0
 43 47  1  0  0  0  0
 46 48  1  0  0  0  0
 48 43  1  1  0  0  0
M  END
>  <CHROM.1>
-134.18321656,74.51468147,-64.85585299,73.72180874,-154.07975535,101.08375733
179.07833888,-60.53102096,-174.78642482,67.54119543,177.74850890,-147.66007037
-132.88184087,28.14234705,8.81597839,7.78396469,1.57707692,1.07586707,0.31429865

>  <Name>
ligand

>  <RI>
0

>  <Rbt.Current_Directory>
/home/itssahil/PROJECTS/Mol_Feturizer/New_Systems/rnas/4PDQ

>  <Rbt.Executable>
rbdock ($Id: //depot/dev/client3/rdock/2013.1/src/exe/rbdock.cxx#4 $)

>  <Rbt.Library>
libRbt.so (2013.1, Build901 2013/11/27)

>  <Rbt.Parameter_File>
/export/apps/rDock/src/rDock_2013.1_src/data/scripts/dock_solv.prm

>  <Rbt.Receptor>
prm/pocket_docking_8.prm

>  <SCORE>
-2.26057

>  <SCORE.INTER>
1.64562

>  <SCORE.INTER.CONST>
1

>  <SCORE.INTER.POLAR>
0

>  <SCORE.INTER.ROT>
13

>  <SCORE.INTER.SOLV>
13.738

>  <SCORE.INTER.VDW>
-15.7489

>  <SCORE.INTER.norm>
0.0335842

>  <SCORE.INTRA>
-3.9109

>  <SCORE.INTRA.DIHEDRAL>
-14.3771

>  <SCORE.INTRA.DIHEDRAL.0>
34.5115

>  <SCORE.INTRA.POLAR>
0

>  <SCORE.INTRA.POLAR.0>
0

>  <SCORE.INTRA.REPUL>
0.0066997

>  <SCORE.INTRA.REPUL.0>
0

>  <SCORE.INTRA.SOLV>
0.138699

>  <SCORE.INTRA.SOLV.lig_0>
-122.812

>  <SCORE.INTRA.VDW>
3.17478

>  <SCORE.INTRA.VDW.0>
-7.46208

>  <SCORE.INTRA.norm>
-0.0798143

>  <SCORE.RESTR>
0.00470797

>  <SCORE.RESTR.CAVITY>
0.00470797

>  <SCORE.RESTR.norm>
9.6081e-05

>  <SCORE.SYSTEM>
0

>  <SCORE.SYSTEM.CONST>
0

>  <SCORE.SYSTEM.DIHEDRAL>
0

>  <SCORE.SYSTEM.SOLV>
0

>  <SCORE.SYSTEM.norm>
0

>  <SCORE.heavy>
49

>  <SCORE.norm>
-0.046134

>  <RMSD>
8.690

$$$$
ligand
 OpenBabel11021811513D
libRbt.so/2013.1/901 2013/11/27
 49 52  0  0  0  0  0  0  0  0999 V2000
   26.7567    7.5358    9.2104 C   0  0  2  0  0  0  0  0  0  0  0  0
   25.8146    7.6046    8.1810 O   0  0  0  0  0  0  0  0  0  0  0  0
   26.2332    6.5799   10.3460 C   0  0  2  0  0  0  0  0  0  0  0  0
   25.9864    5.1985    9.7603 N   0  0  0  0  0  0  0  0  0  0  0  0
   23.6879    7.4415    2.0041 O   0  0  0  0  0  0  0  0  0  0  0  0
   24.9505    7.1581   10.9880 C   0  0  2  0  0  0  0  0  0  0  0  0
   26.5197   11.9943    0.4810 N   0  0  0  0  0  0  0  0  0  0  0  0
   25.2196    8.5610   11.5546 C   0  0  2  0  0  0  0  0  0  0  0  0
   25.7517    9.5546   10.4368 C   0  0  2  0  0  0  0  0  0  0  0  0
   26.9859    8.9179    9.7952 O   0  0  0  0  0  0  0  0  0  0  0  0
   26.0746   10.9570   11.0289 C   0  0  0  0  0  0  0  0  0  0  0  0
   27.1261   10.9488   11.9819 N   0  0  0  0  0  0  0  0  0  0  0  0
   25.8882    7.8963    3.8552 C   0  0  2  0  0  0  0  0  0  0  0  0
   25.8247    8.5053    2.4943 N   0  0  0  0  0  0  0  0  0  0  0  0
   24.6492    8.4829    4.6902 C   0  0  0  0  0  0  0  0  0  0  0  0
   24.6253    7.8701    6.1401 C   0  0  2  0  0  0  0  0  0  0  0  0
   23.5059    8.4154    6.9221 N   0  0  0  0  0  0  0  0  0  0  0  0
   25.9370    8.1992    6.8805 C   0  0  2  0  0  0  0  0  0  0  0  0
   27.1808    7.6376    6.0803 C   0  0  2  0  0  0  0  0  0  0  0  0
   28.3763    7.9950    6.8692 O   0  0  0  0  0  0  0  0  0  0  0  0
   27.2193    8.3296    4.6239 C   0  0  1  0  0  0  0  0  0  0  0  0
   28.3239    7.8288    3.9392 O   0  0  0  0  0  0  0  0  0  0  0  0
   28.9546    9.1463    6.9239 C   0  0  1  0  0  0  0  0  0  0  0  0
   29.9859    9.3299    8.0760 C   0  0  2  0  0  0  0  0  0  0  0  0
   29.3140    9.8503    9.1794 O   0  0  0  0  0  0  0  0  0  0  0  0
   30.8483   10.3392    7.4392 C   0  0  1  0  0  0  0  0  0  0  0  0
   30.9876    9.9761    5.9285 C   0  0  2  0  0  0  0  0  0  0  0  0
   29.6709    9.5342    5.7064 O   0  0  0  0  0  0  0  0  0  0  0  0
   32.1290    9.0481    5.5102 C   0  0  0  0  0  0  0  0  0  0  0  0
   31.9048    7.8194    6.1757 O   0  0  0  0  0  0  0  0  0  0  0  0
   29.0268   11.9182    6.9785 C   0  0  2  0  0  0  0  0  0  0  0  0
   30.1830   11.6642    7.6583 O   0  0  0  0  0  0  0  0  0  0  0  0
   29.2818   12.2652    5.5413 C   0  0  1  0  0  0  0  0  0  0  0  0
   25.5794   14.1599    9.0447 N   0  0  0  0  0  0  0  0  0  0  0  0
   23.5731    8.5406   -0.5724 O   0  0  0  0  0  0  0  0  0  0  0  0
   27.9116   12.5955    4.8317 C   0  0  2  0  0  0  0  0  0  0  0  0
   27.1069   13.7501    5.5232 C   0  0  1  0  0  0  0  0  0  0  0  0
   26.8655   13.3892    6.9005 C   0  0  1  0  0  0  0  0  0  0  0  0
   28.1690   13.0661    7.6060 O   0  0  0  0  0  0  0  0  0  0  0  0
   26.0874   14.5546    7.6550 C   0  0  0  0  0  0  0  0  0  0  0  0
   30.1031   13.4076    5.4589 N   0  0  0  0  0  0  0  0  0  0  0  0
   24.6139    6.4683   11.8349 O   0  0  0  0  0  0  0  0  0  0  0  0
   24.6851   10.2216    0.4752 C   0  0  0  0  0  0  0  0  0  0  0  0
   27.7460   14.7031    5.4952 O   0  0  0  0  0  0  0  0  0  0  0  0
   27.2489   11.6564    4.8780 O   0  0  0  0  0  0  0  0  0  0  0  0
   24.6268    8.1716    1.6562 C   0  0  0  0  0  0  0  0  0  0  0  0
   25.9752   10.6895    0.3633 C   0  0  0  0  0  0  0  0  0  0  0  0
   24.6968    8.9135    0.2222 C   0  0  1  0  0  0  0  0  0  0  0  0
   26.1866    8.4890   12.5729 F   0  0  0  0  0  0  0  0  0  0  0  0
  1  2  1  6  0  0  0
  1 10  1  0  0  0  0
  1  3  1  0  0  0  0
  3  4  1  6  0  0  0
  3  6  1  0  0  0  0
  5 46  2  0  0  0  0
  6 42  1  1  0  0  0
  6  8  1  0  0  0  0
  7 47  1  0  0  0  0
  8  9  1  0  0  0  0
  8 49  1  1  0  0  0
  9 10  1  0  0  0  0
  9 11  1  1  0  0  0
 11 12  1  0  0  0  0
 13 14  1  6  0  0  0
 13 15  1  0  0  0  0
 13 21  1  0  0  0  0
 14 46  1  0  0  0  0
 15 16  1  0  0  0  0
 16 17  1  1  0  0  0
 16 18  1  0  0  0  0
 18  2  1  1  0  0  0
 18 19  1  0  0  0  0
 19 20  1  1  0  0  0
 19 21  1  0  0  0  0
 21 22  1  6  0  0  0
 23 20  1  6  0  0  0
 23 24  1  0  0  0  0
 23 28  1  0  0  0  0
 24 25  1  1  0  0  0
 24 26  1  0  0  0  0
 26 27  1  0  0  0  0
 26 32  1  6  0  0  0
 27 28  1  0  0  0  0
 27 29  1  1  0  0  0
 29 30  1  0  0  0  0
 31 32  1  1  0  0  0
 31 33  1  0  0  0  0
 31 39  1  0  0  0  0
 33 36  1  0  0  0  0
 33 41  1  1  0  0  0
 34 40  1  0  0  0  0
 35 48  1  0  0  0  0
 36 37  1  0  0  0  0
 36 45  1  1  0  0  0
 37 38  1  0  0  0  0
 37 44  1  1  0  0  0
 38 39  1  0  0  0  0
 38 40  1  1  0  0  0
 43 47  1  0  0  0  0
 46 48  1  0  0  0  0
 48 43  1  1  0  0  0
M  END
>  <CHROM.1>
-170.70904800,175.51972640,63.80411343,-63.75928958,-78.36181693,166.36417649
-70.32082533,61.79648969,-76.81219183,169.99862405,177.49343678,-139.11226969
-3.05712541,27.07719018,9.73221367,6.51504031,1.41429485,0.87054158,1.80138841

>  <Name>
ligand

>  <RI>
0

>  <Rbt.Current_Directory>
/home/itssahil/PROJECTS/Mol_Feturizer/New_Systems/rnas/4PDQ

>  <Rbt.Executable>
rbdock ($Id: //depot/dev/client3/rdock/2013.1/src/exe/rbdock.cxx#4 $)

>  <Rbt.Library>
libRbt.so (2013.1, Build901 2013/11/27)

>  <Rbt.Parameter_File>
/export/apps/rDock/src/rDock_2013.1_src/data/scripts/dock_solv.prm

>  <Rbt.Receptor>
prm/pocket_docking_5.prm

>  <SCORE>
-10.7266

>  <SCORE.INTER>
-2.42665

>  <SCORE.INTER.CONST>
1

>  <SCORE.INTER.POLAR>
0

>  <SCORE.INTER.ROT>
13

>  <SCORE.INTER.SOLV>
18.8262

>  <SCORE.INTER.VDW>
-20.1598

>  <SCORE.INTER.norm>
-0.0495234

>  <SCORE.INTRA>
-8.29999

>  <SCORE.INTRA.DIHEDRAL>
-24.4638

>  <SCORE.INTRA.DIHEDRAL.0>
34.5115

>  <SCORE.INTRA.POLAR>
0

>  <SCORE.INTRA.POLAR.0>
0

>  <SCORE.INTRA.REPUL>
0.00383831

>  <SCORE.INTRA.REPUL.0>
0

>  <SCORE.INTRA.SOLV>
0.630238

>  <SCORE.INTRA.SOLV.lig_0>
-122.812

>  <SCORE.INTRA.VDW>
3.59761

>  <SCORE.INTRA.VDW.0>
-7.46208

>  <SCORE.INTRA.norm>
-0.169388

>  <SCORE.RESTR>
0

>  <SCORE.RESTR.CAVITY>
0

>  <SCORE.RESTR.norm>
0

>  <SCORE.SYSTEM>
0

>  <SCORE.SYSTEM.CONST>
0

>  <SCORE.SYSTEM.DIHEDRAL>
0

>  <SCORE.SYSTEM.SOLV>
0

>  <SCORE.SYSTEM.norm>
0

>  <SCORE.heavy>
49

>  <SCORE.norm>
-0.218911

>  <RMSD>
8.730

$$$$
ligand
 OpenBabel11021811513D
libRbt.so/2013.1/901 2013/11/27
 49 52  0  0  0  0  0  0  0  0999 V2000
   27.9931    6.1837    4.2905 C   0  0  2  0  0  0  0  0  0  0  0  0
   27.8859    7.1497    5.2942 O   0  0  0  0  0  0  0  0  0  0  0  0
   27.2659    6.6876    2.9889 C   0  0  2  0  0  0  0  0  0  0  0  0
   27.9003    7.9938    2.5373 N   0  0  0  0  0  0  0  0  0  0  0  0
   28.8217    3.1236   10.7759 O   0  0  0  0  0  0  0  0  0  0  0  0
   25.7508    6.8566    3.2494 C   0  0  2  0  0  0  0  0  0  0  0  0
   29.8424    4.0056   15.5815 N   0  0  0  0  0  0  0  0  0  0  0  0
   25.1366    5.5300    3.7232 C   0  0  2  0  0  0  0  0  0  0  0  0
   25.8469    4.9885    5.0354 C   0  0  2  0  0  0  0  0  0  0  0  0
   27.3461    4.8887    4.7477 O   0  0  0  0  0  0  0  0  0  0  0  0
   25.2573    3.6179    5.4773 C   0  0  0  0  0  0  0  0  0  0  0  0
   23.9371    3.7005    5.9914 N   0  0  0  0  0  0  0  0  0  0  0  0
   29.2697    5.3940    9.0098 C   0  0  2  0  0  0  0  0  0  0  0  0
   29.8369    5.3045   10.3872 N   0  0  0  0  0  0  0  0  0  0  0  0
   30.2156    6.3874    8.1763 C   0  0  0  0  0  0  0  0  0  0  0  0
   29.7008    6.5210    6.6946 C   0  0  2  0  0  0  0  0  0  0  0  0
   30.5479    7.4448    5.9258 N   0  0  0  0  0  0  0  0  0  0  0  0
   28.2573    7.0623    6.6778 C   0  0  2  0  0  0  0  0  0  0  0  0
   27.2977    6.1068    7.4958 C   0  0  2  0  0  0  0  0  0  0  0  0
   25.9501    6.7038    7.4130 O   0  0  0  0  0  0  0  0  0  0  0  0
   27.8087    6.0390    9.0241 C   0  0  1  0  0  0  0  0  0  0  0  0
   26.9479    5.2007    9.7283 O   0  0  0  0  0  0  0  0  0  0  0  0
   25.6321    7.9351    7.6266 C   0  0  1  0  0  0  0  0  0  0  0  0
   24.1059    8.2364    7.6941 C   0  0  2  0  0  0  0  0  0  0  0  0
   23.6728    8.5669    6.4122 O   0  0  0  0  0  0  0  0  0  0  0  0
   24.1544    9.4171    8.5725 C   0  0  1  0  0  0  0  0  0  0  0  0
   25.2435    9.1685    9.6614 C   0  0  2  0  0  0  0  0  0  0  0  0
   26.1885    8.5112    8.8531 O   0  0  0  0  0  0  0  0  0  0  0  0
   24.8220    8.4838   10.9623 C   0  0  0  0  0  0  0  0  0  0  0  0
   24.8263    7.0936   10.6979 O   0  0  0  0  0  0  0  0  0  0  0  0
   23.9107   11.7924    8.0051 C   0  0  2  0  0  0  0  0  0  0  0  0
   24.4713   10.5878    7.6920 O   0  0  0  0  0  0  0  0  0  0  0  0
   24.5408   12.9225    7.2455 C   0  0  1  0  0  0  0  0  0  0  0  0
   22.7508   14.9205   12.0265 N   0  0  0  0  0  0  0  0  0  0  0  0
   31.6074    4.3428   12.4993 O   0  0  0  0  0  0  0  0  0  0  0  0
   23.8821   14.2850    7.6927 C   0  0  2  0  0  0  0  0  0  0  0  0
   23.9839   14.5575    9.2335 C   0  0  1  0  0  0  0  0  0  0  0  0
   23.3630   13.4628    9.9418 C   0  0  1  0  0  0  0  0  0  0  0  0
   23.9791   12.1395    9.5290 O   0  0  0  0  0  0  0  0  0  0  0  0
   23.4821   13.6763   11.5145 C   0  0  0  0  0  0  0  0  0  0  0  0
   25.9190   12.9882    7.5330 N   0  0  0  0  0  0  0  0  0  0  0  0
   25.2400    7.1832    2.2806 O   0  0  0  0  0  0  0  0  0  0  0  0
   29.6264    5.1181   13.2959 C   0  0  0  0  0  0  0  0  0  0  0  0
   25.0945   14.6032    9.5198 O   0  0  0  0  0  0  0  0  0  0  0  0
   22.7613   14.2416    7.4375 O   0  0  0  0  0  0  0  0  0  0  0  0
   29.5124    4.0713   11.1764 C   0  0  0  0  0  0  0  0  0  0  0  0
   30.0050    5.0333   14.6171 C   0  0  0  0  0  0  0  0  0  0  0  0
   30.2061    4.1166   12.6353 C   0  0  1  0  0  0  0  0  0  0  0  0
   25.2698    4.5549    2.7189 F   0  0  0  0  0  0  0  0  0  0  0  0
  1  2  1  1  0  0  0
  1 10  1  0  0  0  0
  1  3  1  0  0  0  0
  3  4  1  1  0  0  0
  3  6  1  0  0  0  0
  5 46  2  0  0  0  0
  6 42  1  6  0  0  0
  6  8  1  0  0  0  0
  7 47  1  0  0  0  0
  8  9  1  0  0  0  0
  8 49  1  6  0  0  0
  9 10  1  0  0  0  0
  9 11  1  6  0  0  0
 11 12  1  0  0  0  0
 13 14  1  1  0  0  0
 13 15  1  0  0  0  0
 13 21  1  0  0  0  0
 14 46  1  0  0  0  0
 15 16  1  0  0  0  0
 16 17  1  6  0  0  0
 16 18  1  0  0  0  0
 18  2  1  6  0  0  0
 18 19  1  0  0  0  0
 19 20  1  1  0  0  0
 19 21  1  0  0  0  0
 21 22  1  1  0  0  0
 23 20  1  1  0  0  0
 23 24  1  0  0  0  0
 23 28  1  0  0  0  0
 24 25  1  6  0  0  0
 24 26  1  0  0  0  0
 26 27  1  0  0  0  0
 26 32  1  6  0  0  0
 27 28  1  0  0  0  0
 27 29  1  1  0  0  0
 29 30  1  0  0  0  0
 31 32  1  1  0  0  0
 31 33  1  0  0  0  0
 31 39  1  0  0  0  0
 33 36  1  0  0  0  0
 33 41  1  1  0  0  0
 34 40  1  0  0  0  0
 35 48  1  0  0  0  0
 36 37  1  0  0  0  0
 36 45  1  1  0  0  0
 37 38  1  0  0  0  0
 37 44  1  1  0  0  0
 38 39  1  0  0  0  0
 38 40  1  1  0  0  0
 43 47  1  0  0  0  0
 46 48  1  0  0  0  0
 48 43  1  1  0  0  0
M  END
>  <CHROM.1>
172.06400133,50.00973135,-70.47953684,-155.73751303,-48.25367519,-170.42820075
145.49543808,82.93392262,167.21122686,63.05952723,-59.17391895,-71.69490063
125.06086888,26.44563480,7.92058538,8.08164000,0.32824447,0.99885172,-2.03051550

>  <Name>
ligand

>  <RI>
0

>  <Rbt.Current_Directory>
/home/itssahil/PROJECTS/Mol_Feturizer/New_Systems/rnas/4PDQ

>  <Rbt.Executable>
rbdock ($Id: //depot/dev/client3/rdock/2013.1/src/exe/rbdock.cxx#4 $)

>  <Rbt.Library>
libRbt.so (2013.1, Build901 2013/11/27)

>  <Rbt.Parameter_File>
/export/apps/rDock/src/rDock_2013.1_src/data/scripts/dock_solv.prm

>  <Rbt.Receptor>
prm/pocket_docking_8.prm

>  <SCORE>
-11.6328

>  <SCORE.INTER>
-0.872737

>  <SCORE.INTER.CONST>
1

>  <SCORE.INTER.POLAR>
0

>  <SCORE.INTER.ROT>
13

>  <SCORE.INTER.SOLV>
19.861

>  <SCORE.INTER.VDW>
-19.4688

>  <SCORE.INTER.norm>
-0.017811

>  <SCORE.INTRA>
-10.76

>  <SCORE.INTRA.DIHEDRAL>
-23.5194

>  <SCORE.INTRA.DIHEDRAL.0>
34.5115

>  <SCORE.INTRA.POLAR>
0

>  <SCORE.INTRA.POLAR.0>
0

>  <SCORE.INTRA.REPUL>
0

>  <SCORE.INTRA.REPUL.0>
0

>  <SCORE.INTRA.SOLV>
-0.982927

>  <SCORE.INTRA.SOLV.lig_0>
-122.812

>  <SCORE.INTRA.VDW>
1.49117

>  <SCORE.INTRA.VDW.0>
-7.46208

>  <SCORE.INTRA.norm>
-0.219592

>  <SCORE.RESTR>
0

>  <SCORE.RESTR.CAVITY>
0

>  <SCORE.RESTR.norm>
0

>  <SCORE.SYSTEM>
0

>  <SCORE.SYSTEM.CONST>
0

>  <SCORE.SYSTEM.DIHEDRAL>
0

>  <SCORE.SYSTEM.SOLV>
0

>  <SCORE.SYSTEM.norm>
0

>  <SCORE.heavy>
49

>  <SCORE.norm>
-0.237403

>  <RMSD>
8.751

$$$$
ligand
 OpenBabel11021811513D
libRbt.so/2013.1/901 2013/11/27
 49 52  0  0  0  0  0  0  0  0999 V2000
   28.9150   10.9434    8.2115 C   0  0  2  0  0  0  0  0  0  0  0  0
   28.0115   10.4586    7.2625 O   0  0  0  0  0  0  0  0  0  0  0  0
   28.3991   12.3160    8.7831 C   0  0  2  0  0  0  0  0  0  0  0  0
   27.0295   12.1111    9.4115 N   0  0  0  0  0  0  0  0  0  0  0  0
   32.1254    6.2275    3.8031 O   0  0  0  0  0  0  0  0  0  0  0  0
   28.3525   13.3823    7.6638 C   0  0  2  0  0  0  0  0  0  0  0  0
   30.4000    5.2091   -0.2125 N   0  0  0  0  0  0  0  0  0  0  0  0
   29.7421   13.5572    7.0313 C   0  0  2  0  0  0  0  0  0  0  0  0
   30.2973   12.1908    6.4444 C   0  0  2  0  0  0  0  0  0  0  0  0
   30.2747   11.1553    7.5703 O   0  0  0  0  0  0  0  0  0  0  0  0
   31.7274   12.3637    5.8556 C   0  0  0  0  0  0  0  0  0  0  0  0
   31.7814   13.2147    4.7212 N   0  0  0  0  0  0  0  0  0  0  0  0
   29.7893    6.9888    5.3644 C   0  0  2  0  0  0  0  0  0  0  0  0
   29.8866    5.7044    4.6108 N   0  0  0  0  0  0  0  0  0  0  0  0
   28.6092    6.8146    6.4384 C   0  0  0  0  0  0  0  0  0  0  0  0
   28.4532    8.1233    7.2994 C   0  0  2  0  0  0  0  0  0  0  0  0
   27.3612    7.9834    8.2740 N   0  0  0  0  0  0  0  0  0  0  0  0
   28.1367    9.3267    6.3891 C   0  0  2  0  0  0  0  0  0  0  0  0
   29.2805    9.5240    5.3140 C   0  0  2  0  0  0  0  0  0  0  0  0
   28.8900   10.6950    4.5043 O   0  0  0  0  0  0  0  0  0  0  0  0
   29.3753    8.1957    4.4040 C   0  0  1  0  0  0  0  0  0  0  0  0
   30.3807    8.3921    3.4604 O   0  0  0  0  0  0  0  0  0  0  0  0
   28.0051   10.7305    3.5671 C   0  0  1  0  0  0  0  0  0  0  0  0
   27.5267   12.1504    3.1435 C   0  0  2  0  0  0  0  0  0  0  0  0
   26.4158   12.4813    3.9158 O   0  0  0  0  0  0  0  0  0  0  0  0
   27.1508   11.8490    1.7521 C   0  0  1  0  0  0  0  0  0  0  0  0
   28.2045   10.8582    1.1678 C   0  0  2  0  0  0  0  0  0  0  0  0
   28.4030   10.0748    2.3191 O   0  0  0  0  0  0  0  0  0  0  0  0
   29.4415   11.4399    0.4819 C   0  0  0  0  0  0  0  0  0  0  0  0
   30.2414   10.3353    0.1042 O   0  0  0  0  0  0  0  0  0  0  0  0
   25.0206   11.3014    0.6631 C   0  0  2  0  0  0  0  0  0  0  0  0
   25.7714   11.2652    1.8027 O   0  0  0  0  0  0  0  0  0  0  0  0
   25.1523   10.0406   -0.1395 C   0  0  1  0  0  0  0  0  0  0  0  0
   24.0988   14.1491   -3.6188 N   0  0  0  0  0  0  0  0  0  0  0  0
   30.7014    3.0126    4.0138 O   0  0  0  0  0  0  0  0  0  0  0  0
   24.3022   10.1715   -1.4625 C   0  0  2  0  0  0  0  0  0  0  0  0
   24.6960   11.4070   -2.3441 C   0  0  1  0  0  0  0  0  0  0  0  0
   24.5521   12.6073   -1.5541 C   0  0  1  0  0  0  0  0  0  0  0  0
   25.3606   12.5066   -0.2745 O   0  0  0  0  0  0  0  0  0  0  0  0
   24.9843   13.8859   -2.3975 C   0  0  0  0  0  0  0  0  0  0  0  0
   26.4988    9.8383   -0.5034 N   0  0  0  0  0  0  0  0  0  0  0  0
   28.0146   14.3782    8.1114 O   0  0  0  0  0  0  0  0  0  0  0  0
   30.2385    4.1505    2.1030 C   0  0  0  0  0  0  0  0  0  0  0  0
   25.7959   11.2948   -2.6528 O   0  0  0  0  0  0  0  0  0  0  0  0
   23.1996   10.3136   -1.1671 O   0  0  0  0  0  0  0  0  0  0  0  0
   31.1550    5.4581    3.8497 C   0  0  0  0  0  0  0  0  0  0  0  0
   30.8704    4.7850    1.0570 C   0  0  0  0  0  0  0  0  0  0  0  0
   31.1136    4.0270    3.1002 C   0  0  1  0  0  0  0  0  0  0  0  0
   30.6529   14.0213    7.9969 F   0  0  0  0  0  0  0  0  0  0  0  0
  1  2  1  6  0  0  0
  1 10  1  0  0  0  0
  1  3  1  0  0  0  0
  3  4  1  6  0  0  0
  3  6  1  0  0  0  0
  5 46  2  0  0  0  0
  6 42  1  1  0  0  0
  6  8  1  0  0  0  0
  7 47  1  0  0  0  0
  8  9  1  0  0  0  0
  8 49  1  1  0  0  0
  9 10  1  0  0  0  0
  9 11  1  1  0  0  0
 11 12  1  0  0  0  0
 13 14  1  6  0  0  0
 13 15  1  0  0  0  0
 13 21  1  0  0  0  0
 14 46  1  0  0  0  0
 15 16  1  0  0  0  0
 16 17  1  1  0  0  0
 16 18  1  0  0  0  0
 18  2  1  1  0  0  0
 18 19  1  0  0  0  0
 19 20  1  6  0  0  0
 19 21  1  0  0  0  0
 21 22  1  6  0  0  0
 23 20  1  1  0  0  0
 23 24  1  0  0  0  0
 23 28  1  0  0  0  0
 24 25  1  1  0  0  0
 24 26  1  0  0  0  0
 26 27  1  0  0  0  0
 26 32  1  1  0  0  0
 27 28  1  0  0  0  0
 27 29  1  1  0  0  0
 29 30  1  0  0  0  0
 31 32  1  1  0  0  0
 31 33  1  0  0  0  0
 31 39  1  0  0  0  0
 33 36  1  0  0  0  0
 33 41  1  6  0  0  0
 34 40  1  0  0  0  0
 35 48  1  0  0  0  0
 36 37  1  0  0  0  0
 36 45  1  1  0  0  0
 37 38  1  0  0  0  0
 37 44  1  1  0  0  0
 38 39  1  0  0  0  0
 38 40  1  6  0  0  0
 43 47  1  0  0  0  0
 46 48  1  0  0  0  0
 48 43  1  6  0  0  0
M  END
>  <CHROM.1>
172.73906493,54.27095445,-65.35115918,-162.06878973,-77.36598529,164.33105995
159.00205730,177.57249398,93.68423960,63.86008184,-177.25665906,-160.35538007
130.02431441,28.27645384,10.10373652,3.38871068,0.52367358,-1.00725126,0.82694938

>  <Name>
ligand

>  <RI>
0

>  <Rbt.Current_Directory>
/home/itssahil/PROJECTS/Mol_Feturizer/New_Systems/rnas/4PDQ

>  <Rbt.Executable>
rbdock ($Id: //depot/dev/client3/rdock/2013.1/src/exe/rbdock.cxx#4 $)

>  <Rbt.Library>
libRbt.so (2013.1, Build901 2013/11/27)

>  <Rbt.Parameter_File>
/export/apps/rDock/src/rDock_2013.1_src/data/scripts/dock_solv.prm

>  <Rbt.Receptor>
prm/pocket_docking_8.prm

>  <SCORE>
-14.4183

>  <SCORE.INTER>
-5.88481

>  <SCORE.INTER.CONST>
1

>  <SCORE.INTER.POLAR>
0

>  <SCORE.INTER.ROT>
13

>  <SCORE.INTER.SOLV>
22.1763

>  <SCORE.INTER.VDW>
-23.582

>  <SCORE.INTER.norm>
-0.120098

>  <SCORE.INTRA>
-8.53345

>  <SCORE.INTRA.DIHEDRAL>
-22.6473

>  <SCORE.INTRA.DIHEDRAL.0>
34.5115

>  <SCORE.INTRA.POLAR>
0

>  <SCORE.INTRA.POLAR.0>
0

>  <SCORE.INTRA.REPUL>
0

>  <SCORE.INTRA.REPUL.0>
0

>  <SCORE.INTRA.SOLV>
0.415201

>  <SCORE.INTRA.SOLV.lig_0>
-122.812

>  <SCORE.INTRA.VDW>
2.58258

>  <SCORE.INTRA.VDW.0>
-7.46208

>  <SCORE.INTRA.norm>
-0.174152

>  <SCORE.RESTR>
0

>  <SCORE.RESTR.CAVITY>
0

>  <SCORE.RESTR.norm>
0

>  <SCORE.SYSTEM>
0

>  <SCORE.SYSTEM.CONST>
0

>  <SCORE.SYSTEM.DIHEDRAL>
0

>  <SCORE.SYSTEM.SOLV>
0

>  <SCORE.SYSTEM.norm>
0

>  <SCORE.heavy>
49

>  <SCORE.norm>
-0.29425

>  <RMSD>
8.755

$$$$
ligand
 OpenBabel11021811513D
libRbt.so/2013.1/901 2013/11/27
 49 52  0  0  0  0  0  0  0  0999 V2000
   26.4132    7.0631    2.2398 C   0  0  2  0  0  0  0  0  0  0  0  0
   27.8081    7.0535    2.3195 O   0  0  0  0  0  0  0  0  0  0  0  0
   25.9445    6.1731    1.0293 C   0  0  2  0  0  0  0  0  0  0  0  0
   26.4543    4.7541    1.2271 N   0  0  0  0  0  0  0  0  0  0  0  0
   27.9549   11.0207    7.6760 O   0  0  0  0  0  0  0  0  0  0  0  0
   26.4459    6.7719   -0.3055 C   0  0  2  0  0  0  0  0  0  0  0  0
   29.4229   15.4164    7.8692 N   0  0  0  0  0  0  0  0  0  0  0  0
   25.9348    8.2114   -0.4734 C   0  0  2  0  0  0  0  0  0  0  0  0
   26.3869    9.1403    0.7318 C   0  0  2  0  0  0  0  0  0  0  0  0
   25.9168    8.4824    2.0304 O   0  0  0  0  0  0  0  0  0  0  0  0
   25.8194   10.5816    0.5833 C   0  0  0  0  0  0  0  0  0  0  0  0
   26.2804   11.2631   -0.5731 N   0  0  0  0  0  0  0  0  0  0  0  0
   29.0415   10.1151    5.1316 C   0  0  2  0  0  0  0  0  0  0  0  0
   29.8572   10.8148    6.1670 N   0  0  0  0  0  0  0  0  0  0  0  0
   28.8947    8.5878    5.6028 C   0  0  0  0  0  0  0  0  0  0  0  0
   28.0218    7.7774    4.5734 C   0  0  2  0  0  0  0  0  0  0  0  0
   27.8967    6.3710    4.9838 N   0  0  0  0  0  0  0  0  0  0  0  0
   28.6709    7.8166    3.1756 C   0  0  2  0  0  0  0  0  0  0  0  0
   28.8343    9.3109    2.6823 C   0  0  2  0  0  0  0  0  0  0  0  0
   29.4525    9.2396    1.3436 O   0  0  0  0  0  0  0  0  0  0  0  0
   29.7852   10.1008    3.7184 C   0  0  1  0  0  0  0  0  0  0  0  0
   29.9228   11.4098    3.2631 O   0  0  0  0  0  0  0  0  0  0  0  0
   30.5808    8.6956    1.0375 C   0  0  1  0  0  0  0  0  0  0  0  0
   30.6735    8.0934   -0.3955 C   0  0  2  0  0  0  0  0  0  0  0  0
   30.2872    6.7569   -0.3291 O   0  0  0  0  0  0  0  0  0  0  0  0
   32.1256    8.2300   -0.5970 C   0  0  1  0  0  0  0  0  0  0  0  0
   32.5765    9.5891    0.0218 C   0  0  2  0  0  0  0  0  0  0  0  0
   31.7428    9.5798    1.1546 O   0  0  0  0  0  0  0  0  0  0  0  0
   32.5522   10.8323   -0.8685 C   0  0  0  0  0  0  0  0  0  0  0  0
   33.1339   11.8751   -0.1089 O   0  0  0  0  0  0  0  0  0  0  0  0
   34.0882    6.8267   -0.1473 C   0  0  2  0  0  0  0  0  0  0  0  0
   32.7595    7.0488    0.0732 O   0  0  0  0  0  0  0  0  0  0  0  0
   34.6125    5.6833    0.6706 C   0  0  1  0  0  0  0  0  0  0  0  0
   38.7414    9.1981   -0.2034 N   0  0  0  0  0  0  0  0  0  0  0  0
   31.3131   11.1343    8.6636 O   0  0  0  0  0  0  0  0  0  0  0  0
   36.1591    5.5163    0.4056 C   0  0  2  0  0  0  0  0  0  0  0  0
   36.9923    6.8106    0.7047 C   0  0  1  0  0  0  0  0  0  0  0  0
   36.4761    7.8929   -0.1001 C   0  0  1  0  0  0  0  0  0  0  0  0
   34.9887    8.0741    0.1362 O   0  0  0  0  0  0  0  0  0  0  0  0
   37.2658    9.2408    0.2041 C   0  0  0  0  0  0  0  0  0  0  0  0
   34.4303    5.9480    2.0429 N   0  0  0  0  0  0  0  0  0  0  0  0
   26.0591    6.1319   -1.1699 O   0  0  0  0  0  0  0  0  0  0  0  0
   30.5093   13.1081    7.8776 C   0  0  0  0  0  0  0  0  0  0  0  0
   36.8611    7.0766    1.8136 O   0  0  0  0  0  0  0  0  0  0  0  0
   36.3076    5.2775   -0.7098 O   0  0  0  0  0  0  0  0  0  0  0  0
   29.1515   11.2233    7.4256 C   0  0  0  0  0  0  0  0  0  0  0  0
   29.5873   14.0600    8.2514 C   0  0  0  0  0  0  0  0  0  0  0  0
   30.1664   11.9543    8.4489 C   0  0  1  0  0  0  0  0  0  0  0  0
   24.5296    8.2175   -0.5278 F   0  0  0  0  0  0  0  0  0  0  0  0
  1  2  1  6  0  0  0
  1 10  1  0  0  0  0
  1  3  1  0  0  0  0
  3  4  1  1  0  0  0
  3  6  1  0  0  0  0
  5 46  2  0  0  0  0
  6 42  1  6  0  0  0
  6  8  1  0  0  0  0
  7 47  1  0  0  0  0
  8  9  1  0  0  0  0
  8 49  1  1  0  0  0
  9 10  1  0  0  0  0
  9 11  1  6  0  0  0
 11 12  1  0  0  0  0
 13 14  1  1  0  0  0
 13 15  1  0  0  0  0
 13 21  1  0  0  0  0
 14 46  1  0  0  0  0
 15 16  1  0  0  0  0
 16 17  1  1  0  0  0
 16 18  1  0  0  0  0
 18  2  1  6  0  0  0
 18 19  1  0  0  0  0
 19 20  1  6  0  0  0
 19 21  1  0  0  0  0
 21 22  1  6  0  0  0
 23 20  1  6  0  0  0
 23 24  1  0  0  0  0
 23 28  1  0  0  0  0
 24 25  1  1  0  0  0
 24 26  1  0  0  0  0
 26 27  1  0  0  0  0
 26 32  1  1  0  0  0
 27 28  1  0  0  0  0
 27 29  1  6  0  0  0
 29 30  1  0  0  0  0
 31 32  1  1  0  0  0
 31 33  1  0  0  0  0
 31 39  1  0  0  0  0
 33 36  1  0  0  0  0
 33 41  1  1  0  0  0
 34 40  1  0  0  0  0
 35 48  1  0  0  0  0
 36 37  1  0  0  0  0
 36 45  1  6  0  0  0
 37 38  1  0  0  0  0
 37 44  1  1  0  0  0
 38 39  1  0  0  0  0
 38 40  1  1  0  0  0
 43 47  1  0  0  0  0
 46 48  1  0  0  0  0
 48 43  1  6  0  0  0
M  END
>  <CHROM.1>
173.41664029,43.49645657,-62.51754075,-78.99897172,-58.28868084,149.04648103
169.91654468,-174.02108471,175.32140067,65.25395834,-175.30771392,-152.04203145
126.30746926,30.50946544,8.80779307,2.18821087,2.56444661,0.02617275,0.97345952

>  <Name>
ligand

>  <RI>
0

>  <Rbt.Current_Directory>
/home/itssahil/PROJECTS/Mol_Feturizer/New_Systems/rnas/4PDQ

>  <Rbt.Executable>
rbdock ($Id: //depot/dev/client3/rdock/2013.1/src/exe/rbdock.cxx#4 $)

>  <Rbt.Library>
libRbt.so (2013.1, Build901 2013/11/27)

>  <Rbt.Parameter_File>
/export/apps/rDock/src/rDock_2013.1_src/data/scripts/dock_solv.prm

>  <Rbt.Receptor>
prm/pocket_docking_6.prm

>  <SCORE>
-15.5613

>  <SCORE.INTER>
-2.86509

>  <SCORE.INTER.CONST>
1

>  <SCORE.INTER.POLAR>
0

>  <SCORE.INTER.ROT>
13

>  <SCORE.INTER.SOLV>
18.8961

>  <SCORE.INTER.VDW>
-20.4754

>  <SCORE.INTER.norm>
-0.0584712

>  <SCORE.INTRA>
-12.6962

>  <SCORE.INTRA.DIHEDRAL>
-24.8454

>  <SCORE.INTRA.DIHEDRAL.0>
34.5115

>  <SCORE.INTRA.POLAR>
0

>  <SCORE.INTRA.POLAR.0>
0

>  <SCORE.INTRA.REPUL>
0

>  <SCORE.INTRA.REPUL.0>
0

>  <SCORE.INTRA.SOLV>
-3.43383

>  <SCORE.INTRA.SOLV.lig_0>
-122.812

>  <SCORE.INTRA.VDW>
1.44337

>  <SCORE.INTRA.VDW.0>
-7.46208

>  <SCORE.INTRA.norm>
-0.259107

>  <SCORE.RESTR>
0

>  <SCORE.RESTR.CAVITY>
0

>  <SCORE.RESTR.norm>
0

>  <SCORE.SYSTEM>
0

>  <SCORE.SYSTEM.CONST>
0

>  <SCORE.SYSTEM.DIHEDRAL>
0

>  <SCORE.SYSTEM.SOLV>
0

>  <SCORE.SYSTEM.norm>
0

>  <SCORE.heavy>
49

>  <SCORE.norm>
-0.317578

>  <RMSD>
8.768

$$$$
ligand
 OpenBabel11021811513D
libRbt.so/2013.1/901 2013/11/27
 49 52  0  0  0  0  0  0  0  0999 V2000
   24.9495   10.3982    2.0191 C   0  0  2  0  0  0  0  0  0  0  0  0
   26.1069   10.5764    2.7812 O   0  0  0  0  0  0  0  0  0  0  0  0
   24.8644    8.9068    1.5237 C   0  0  2  0  0  0  0  0  0  0  0  0
   24.8525    7.9808    2.7298 N   0  0  0  0  0  0  0  0  0  0  0  0
   25.9612   11.6811    9.1834 O   0  0  0  0  0  0  0  0  0  0  0  0
   26.0445    8.5854    0.5772 C   0  0  2  0  0  0  0  0  0  0  0  0
   27.5726    7.3870    9.6396 N   0  0  0  0  0  0  0  0  0  0  0  0
   26.0471    9.5459   -0.6224 C   0  0  2  0  0  0  0  0  0  0  0  0
   26.1303   11.0625   -0.1613 C   0  0  2  0  0  0  0  0  0  0  0  0
   24.9782   11.3186    0.8121 O   0  0  0  0  0  0  0  0  0  0  0  0
   26.0763   12.0310   -1.3781 C   0  0  0  0  0  0  0  0  0  0  0  0
   24.8748   11.9432   -2.1281 N   0  0  0  0  0  0  0  0  0  0  0  0
   27.3832   10.5184    6.9249 C   0  0  2  0  0  0  0  0  0  0  0  0
   27.5497   10.0424    8.3294 N   0  0  0  0  0  0  0  0  0  0  0  0
   25.8342   10.3333    6.5470 C   0  0  0  0  0  0  0  0  0  0  0  0
   25.5631   10.8371    5.0804 C   0  0  2  0  0  0  0  0  0  0  0  0
   24.1508   10.6540    4.7150 N   0  0  0  0  0  0  0  0  0  0  0  0
   26.4277   10.0485    4.0766 C   0  0  2  0  0  0  0  0  0  0  0  0
   27.9631   10.2066    4.4239 C   0  0  2  0  0  0  0  0  0  0  0  0
   28.6994    9.4274    3.4090 O   0  0  0  0  0  0  0  0  0  0  0  0
   28.2253    9.6237    5.9047 C   0  0  1  0  0  0  0  0  0  0  0  0
   29.5816    9.7646    6.1881 O   0  0  0  0  0  0  0  0  0  0  0  0
   29.7417    9.8018    2.7485 C   0  0  1  0  0  0  0  0  0  0  0  0
   29.6473   11.2027    2.0754 C   0  0  2  0  0  0  0  0  0  0  0  0
   29.1516   11.0305    0.7852 O   0  0  0  0  0  0  0  0  0  0  0  0
   31.0810   11.5384    2.0664 C   0  0  1  0  0  0  0  0  0  0  0  0
   31.7063   11.0360    3.4043 C   0  0  2  0  0  0  0  0  0  0  0  0
   30.9835    9.8353    3.5247 O   0  0  0  0  0  0  0  0  0  0  0  0
   31.7102   11.9865    4.6023 C   0  0  0  0  0  0  0  0  0  0  0  0
   32.3835   13.1566    4.1776 O   0  0  0  0  0  0  0  0  0  0  0  0
   32.9567   11.1606    0.5294 C   0  0  2  0  0  0  0  0  0  0  0  0
   31.6667   10.8638    0.8630 O   0  0  0  0  0  0  0  0  0  0  0  0
   33.3700   10.5113   -0.7585 C   0  0  1  0  0  0  0  0  0  0  0  0
   37.1008    9.2958    2.2981 N   0  0  0  0  0  0  0  0  0  0  0  0
   26.7762   11.0865   11.8537 O   0  0  0  0  0  0  0  0  0  0  0  0
   34.8815   10.8536   -1.0555 C   0  0  2  0  0  0  0  0  0  0  0  0
   35.8607   10.4283    0.0930 C   0  0  1  0  0  0  0  0  0  0  0  0
   35.4489   11.0725    1.3182 C   0  0  1  0  0  0  0  0  0  0  0  0
   33.9970   10.7590    1.6265 O   0  0  0  0  0  0  0  0  0  0  0  0
   36.3909   10.6338    2.5237 C   0  0  0  0  0  0  0  0  0  0  0  0
   33.2517    9.1109   -0.6529 N   0  0  0  0  0  0  0  0  0  0  0  0
   25.9380    7.5119    0.1996 O   0  0  0  0  0  0  0  0  0  0  0  0
   26.1977    9.0765   10.9676 C   0  0  0  0  0  0  0  0  0  0  0  0
   35.7868    9.2908    0.2282 O   0  0  0  0  0  0  0  0  0  0  0  0
   34.9754   11.9949   -1.1648 O   0  0  0  0  0  0  0  0  0  0  0  0
   26.7499   10.7466    9.3845 C   0  0  0  0  0  0  0  0  0  0  0  0
   26.9247    7.9218   10.7829 C   0  0  0  0  0  0  0  0  0  0  0  0
   27.0278   10.1113   10.8442 C   0  0  1  0  0  0  0  0  0  0  0  0
   24.8687    9.3798   -1.3715 F   0  0  0  0  0  0  0  0  0  0  0  0
  1  2  1  6  0  0  0
  1 10  1  0  0  0  0
  1  3  1  0  0  0  0
  3  4  1  1  0  0  0
  3  6  1  0  0  0  0
  5 46  2  0  0  0  0
  6 42  1  6  0  0  0
  6  8  1  0  0  0  0
  7 47  1  0  0  0  0
  8  9  1  0  0  0  0
  8 49  1  1  0  0  0
  9 10  1  0  0  0  0
  9 11  1  6  0  0  0
 11 12  1  0  0  0  0
 13 14  1  1  0  0  0
 13 15  1  0  0  0  0
 13 21  1  0  0  0  0
 14 46  1  0  0  0  0
 15 16  1  0  0  0  0
 16 17  1  6  0  0  0
 16 18  1  0  0  0  0
 18  2  1  6  0  0  0
 18 19  1  0  0  0  0
 19 20  1  6  0  0  0
 19 21  1  0  0  0  0
 21 22  1  1  0  0  0
 23 20  1  1  0  0  0
 23 24  1  0  0  0  0
 23 28  1  0  0  0  0
 24 25  1  6  0  0  0
 24 26  1  0  0  0  0
 26 27  1  0  0  0  0
 26 32  1  6  0  0  0
 27 28  1  0  0  0  0
 27 29  1  1  0  0  0
 29 30  1  0  0  0  0
 31 32  1  1  0  0  0
 31 33  1  0  0  0  0
 31 39  1  0  0  0  0
 33 36  1  0  0  0  0
 33 41  1  1  0  0  0
 34 40  1  0  0  0  0
 35 48  1  0  0  0  0
 36 37  1  0  0  0  0
 36 45  1  1  0  0  0
 37 38  1  0  0  0  0
 37 44  1  1  0  0  0
 38 39  1  0  0  0  0
 38 40  1  1  0  0  0
 43 47  1  0  0  0  0
 46 48  1  0  0  0  0
 48 43  1  1  0  0  0
M  END
>  <CHROM.1>
-68.73017056,-73.08944490,61.61299431,-59.92213278,133.98074864,-49.31843728
171.67841153,-56.62413094,-174.91089105,-23.02150175,-67.41123618,-137.14660996
-26.55244677,29.10936509,10.29316284,3.28128772,2.36919853,0.06509248,1.60560612

>  <Name>
ligand

>  <RI>
0

>  <Rbt.Current_Directory>
/home/itssahil/PROJECTS/Mol_Feturizer/New_Systems/rnas/4PDQ

>  <Rbt.Executable>
rbdock ($Id: //depot/dev/client3/rdock/2013.1/src/exe/rbdock.cxx#4 $)

>  <Rbt.Library>
libRbt.so (2013.1, Build901 2013/11/27)

>  <Rbt.Parameter_File>
/export/apps/rDock/src/rDock_2013.1_src/data/scripts/dock_solv.prm

>  <Rbt.Receptor>
prm/pocket_docking_2.prm

>  <SCORE>
2.71093

>  <SCORE.INTER>
3.12125

>  <SCORE.INTER.CONST>
1

>  <SCORE.INTER.POLAR>
0

>  <SCORE.INTER.ROT>
13

>  <SCORE.INTER.SOLV>
20.8398

>  <SCORE.INTER.VDW>
-17.1324

>  <SCORE.INTER.norm>
0.063699

>  <SCORE.INTRA>
-3.46727

>  <SCORE.INTRA.DIHEDRAL>
-16.552

>  <SCORE.INTRA.DIHEDRAL.0>
34.5115

>  <SCORE.INTRA.POLAR>
0

>  <SCORE.INTRA.POLAR.0>
0

>  <SCORE.INTRA.REPUL>
0

>  <SCORE.INTRA.REPUL.0>
0

>  <SCORE.INTRA.SOLV>
5.71981

>  <SCORE.INTRA.SOLV.lig_0>
-122.812

>  <SCORE.INTRA.VDW>
1.94884

>  <SCORE.INTRA.VDW.0>
-7.46208

>  <SCORE.INTRA.norm>
-0.0707607

>  <SCORE.RESTR>
3.05695

>  <SCORE.RESTR.CAVITY>
3.05695

>  <SCORE.RESTR.norm>
0.0623868

>  <SCORE.SYSTEM>
0

>  <SCORE.SYSTEM.CONST>
0

>  <SCORE.SYSTEM.DIHEDRAL>
0

>  <SCORE.SYSTEM.SOLV>
0

>  <SCORE.SYSTEM.norm>
0

>  <SCORE.heavy>
49

>  <SCORE.norm>
0.0553251

>  <RMSD>
8.769

$$$$
ligand
 OpenBabel11021811513D
libRbt.so/2013.1/901 2013/11/27
 49 52  0  0  0  0  0  0  0  0999 V2000
   26.3504   10.5376    1.5550 C   0  0  2  0  0  0  0  0  0  0  0  0
   25.6360   10.9111    2.6961 O   0  0  0  0  0  0  0  0  0  0  0  0
   25.5612   10.9784    0.2666 C   0  0  2  0  0  0  0  0  0  0  0  0
   25.3603   12.4854    0.2963 N   0  0  0  0  0  0  0  0  0  0  0  0
   27.2370    9.4982    8.0202 O   0  0  0  0  0  0  0  0  0  0  0  0
   24.2102   10.2306    0.1802 C   0  0  2  0  0  0  0  0  0  0  0  0
   26.3521    7.3685   11.2617 N   0  0  0  0  0  0  0  0  0  0  0  0
   24.4378    8.7108    0.1716 C   0  0  2  0  0  0  0  0  0  0  0  0
   25.2340    8.2281    1.4571 C   0  0  2  0  0  0  0  0  0  0  0  0
   26.5343    9.0308    1.5300 O   0  0  0  0  0  0  0  0  0  0  0  0
   25.5092    6.6971    1.4145 C   0  0  0  0  0  0  0  0  0  0  0  0
   26.5324    6.3235    0.5048 N   0  0  0  0  0  0  0  0  0  0  0  0
   25.6208   11.6770    6.9641 C   0  0  2  0  0  0  0  0  0  0  0  0
   25.8614   11.4691    8.4221 N   0  0  0  0  0  0  0  0  0  0  0  0
   25.0434   10.2970    6.3821 C   0  0  0  0  0  0  0  0  0  0  0  0
   24.7365   10.4357    4.8443 C   0  0  2  0  0  0  0  0  0  0  0  0
   24.2257    9.1712    4.2948 N   0  0  0  0  0  0  0  0  0  0  0  0
   26.0186   10.8131    4.0758 C   0  0  2  0  0  0  0  0  0  0  0  0
   26.6169   12.1693    4.6287 C   0  0  2  0  0  0  0  0  0  0  0  0
   27.8271   12.4443    3.8291 O   0  0  0  0  0  0  0  0  0  0  0  0
   26.9833   11.9801    6.1880 C   0  0  1  0  0  0  0  0  0  0  0  0
   27.5149   13.1803    6.6533 O   0  0  0  0  0  0  0  0  0  0  0  0
   28.7868   11.6242    3.5663 C   0  0  1  0  0  0  0  0  0  0  0  0
   29.9672   12.2096    2.7366 C   0  0  2  0  0  0  0  0  0  0  0  0
   29.6965   11.9948    1.3874 O   0  0  0  0  0  0  0  0  0  0  0  0
   31.0379   11.3239    3.2238 C   0  0  1  0  0  0  0  0  0  0  0  0
   30.8178   11.0895    4.7502 C   0  0  2  0  0  0  0  0  0  0  0  0
   29.4134   11.0126    4.7407 O   0  0  0  0  0  0  0  0  0  0  0  0
   31.4699   12.0634    5.7326 C   0  0  0  0  0  0  0  0  0  0  0  0
   30.9959   13.3513    5.3872 O   0  0  0  0  0  0  0  0  0  0  0  0
   31.4675   10.0608    1.1638 C   0  0  2  0  0  0  0  0  0  0  0  0
   30.9402   10.0608    2.4229 O   0  0  0  0  0  0  0  0  0  0  0  0
   31.4185    8.7011    0.5316 C   0  0  1  0  0  0  0  0  0  0  0  0
   35.6823   11.4986   -1.5543 N   0  0  0  0  0  0  0  0  0  0  0  0
   27.2438   11.4962   10.9297 O   0  0  0  0  0  0  0  0  0  0  0  0
   32.0882    8.7634   -0.8959 C   0  0  2  0  0  0  0  0  0  0  0  0
   33.5658    9.2878   -0.8757 C   0  0  1  0  0  0  0  0  0  0  0  0
   33.5858   10.5999   -0.2726 C   0  0  1  0  0  0  0  0  0  0  0  0
   32.9464   10.5672    1.1026 O   0  0  0  0  0  0  0  0  0  0  0  0
   35.0755   11.1542   -0.1911 C   0  0  0  0  0  0  0  0  0  0  0  0
   32.1421    7.7786    1.3139 N   0  0  0  0  0  0  0  0  0  0  0  0
   23.6755   10.5366   -0.7825 O   0  0  0  0  0  0  0  0  0  0  0  0
   25.7184    9.8132   10.9012 C   0  0  0  0  0  0  0  0  0  0  0  0
   34.1940    8.5737   -0.2331 O   0  0  0  0  0  0  0  0  0  0  0  0
   31.4848    9.4987   -1.5428 O   0  0  0  0  0  0  0  0  0  0  0  0
   26.7137   10.2976    8.8094 C   0  0  0  0  0  0  0  0  0  0  0  0
   25.6205    8.4528   10.7123 C   0  0  0  0  0  0  0  0  0  0  0  0
   26.8916   10.2144   10.4135 C   0  0  1  0  0  0  0  0  0  0  0  0
   25.1787    8.3439   -0.9659 F   0  0  0  0  0  0  0  0  0  0  0  0
  1  2  1  1  0  0  0
  1 10  1  0  0  0  0
  1  3  1  0  0  0  0
  3  4  1  1  0  0  0
  3  6  1  0  0  0  0
  5 46  2  0  0  0  0
  6 42  1  6  0  0  0
  6  8  1  0  0  0  0
  7 47  1  0  0  0  0
  8  9  1  0  0  0  0
  8 49  1  6  0  0  0
  9 10  1  0  0  0  0
  9 11  1  6  0  0  0
 11 12  1  0  0  0  0
 13 14  1  1  0  0  0
 13 15  1  0  0  0  0
 13 21  1  0  0  0  0
 14 46  1  0  0  0  0
 15 16  1  0  0  0  0
 16 17  1  6  0  0  0
 16 18  1  0  0  0  0
 18  2  1  6  0  0  0
 18 19  1  0  0  0  0
 19 20  1  6  0  0  0
 19 21  1  0  0  0  0
 21 22  1  1  0  0  0
 23 20  1  1  0  0  0
 23 24  1  0  0  0  0
 23 28  1  0  0  0  0
 24 25  1  6  0  0  0
 24 26  1  0  0  0  0
 26 27  1  0  0  0  0
 26 32  1  6  0  0  0
 27 28  1  0  0  0  0
 27 29  1  1  0  0  0
 29 30  1  0  0  0  0
 31 32  1  1  0  0  0
 31 33  1  0  0  0  0
 31 39  1  0  0  0  0
 33 36  1  0  0  0  0
 33 41  1  1  0  0  0
 34 40  1  0  0  0  0
 35 48  1  0  0  0  0
 36 37  1  0  0  0  0
 36 45  1  6  0  0  0
 37 38  1  0  0  0  0
 37 44  1  1  0  0  0
 38 39  1  0  0  0  0
 38 40  1  1  0  0  0
 43 47  1  0  0  0  0
 46 48  1  0  0  0  0
 48 43  1  1  0  0  0
M  END
>  <CHROM.1>
-174.37428421,-142.73862670,74.66365901,53.59740467,-48.90877298,-177.84663823
79.35914913,56.99860406,174.46725860,69.24934131,66.02833361,-161.99074477
131.38215736,28.31962039,10.30964881,3.39950193,0.95984730,-0.15336650,-1.72377353

>  <Name>
ligand

>  <RI>
0

>  <Rbt.Current_Directory>
/home/itssahil/PROJECTS/Mol_Feturizer/New_Systems/rnas/4PDQ

>  <Rbt.Executable>
rbdock ($Id: //depot/dev/client3/rdock/2013.1/src/exe/rbdock.cxx#4 $)

>  <Rbt.Library>
libRbt.so (2013.1, Build901 2013/11/27)

>  <Rbt.Parameter_File>
/export/apps/rDock/src/rDock_2013.1_src/data/scripts/dock_solv.prm

>  <Rbt.Receptor>
prm/pocket_docking_3.prm

>  <SCORE>
-10.3042

>  <SCORE.INTER>
-2.39517

>  <SCORE.INTER.CONST>
1

>  <SCORE.INTER.POLAR>
0

>  <SCORE.INTER.ROT>
13

>  <SCORE.INTER.SOLV>
19.1423

>  <SCORE.INTER.VDW>
-20.2442

>  <SCORE.INTER.norm>
-0.048881

>  <SCORE.INTRA>
-8.01096

>  <SCORE.INTRA.DIHEDRAL>
-23.6253

>  <SCORE.INTRA.DIHEDRAL.0>
34.5115

>  <SCORE.INTRA.POLAR>
0

>  <SCORE.INTRA.POLAR.0>
0

>  <SCORE.INTRA.REPUL>
0

>  <SCORE.INTRA.REPUL.0>
0

>  <SCORE.INTRA.SOLV>
1.37949

>  <SCORE.INTRA.SOLV.lig_0>
-122.812

>  <SCORE.INTRA.VDW>
3.11192

>  <SCORE.INTRA.VDW.0>
-7.46208

>  <SCORE.INTRA.norm>
-0.163489

>  <SCORE.RESTR>
0.101966

>  <SCORE.RESTR.CAVITY>
0.101966

>  <SCORE.RESTR.norm>
0.00208094

>  <SCORE.SYSTEM>
0

>  <SCORE.SYSTEM.CONST>
0

>  <SCORE.SYSTEM.DIHEDRAL>
0

>  <SCORE.SYSTEM.SOLV>
0

>  <SCORE.SYSTEM.norm>
0

>  <SCORE.heavy>
49

>  <SCORE.norm>
-0.210289

>  <RMSD>
8.771

$$$$
ligand
 OpenBabel11021811513D
libRbt.so/2013.1/901 2013/11/27
 49 52  0  0  0  0  0  0  0  0999 V2000
   28.0058   10.5366   -0.3819 C   0  0  2  0  0  0  0  0  0  0  0  0
   28.1769   11.3732    0.7239 O   0  0  0  0  0  0  0  0  0  0  0  0
   26.4911   10.5251   -0.8096 C   0  0  2  0  0  0  0  0  0  0  0  0
   26.0574   11.9433   -1.1459 N   0  0  0  0  0  0  0  0  0  0  0  0
   28.3691   14.0892    7.0180 O   0  0  0  0  0  0  0  0  0  0  0  0
   25.6185    9.9197    0.3146 C   0  0  2  0  0  0  0  0  0  0  0  0
   26.1203   10.6993   10.6962 N   0  0  0  0  0  0  0  0  0  0  0  0
   26.0880    8.4955    0.6503 C   0  0  2  0  0  0  0  0  0  0  0  0
   27.6144    8.4667    1.0851 C   0  0  2  0  0  0  0  0  0  0  0  0
   28.4304    9.1219   -0.0308 O   0  0  0  0  0  0  0  0  0  0  0  0
   28.0977    7.0151    1.3696 C   0  0  0  0  0  0  0  0  0  0  0  0
   27.5146    6.4327    2.5250 N   0  0  0  0  0  0  0  0  0  0  0  0
   28.1007   11.9940    5.0148 C   0  0  2  0  0  0  0  0  0  0  0  0
   27.7245   11.8096    6.4471 N   0  0  0  0  0  0  0  0  0  0  0  0
   26.7374   11.9931    4.1675 C   0  0  0  0  0  0  0  0  0  0  0  0
   27.0417   12.2084    2.6381 C   0  0  2  0  0  0  0  0  0  0  0  0
   25.8016   12.1893    1.8483 N   0  0  0  0  0  0  0  0  0  0  0  0
   27.9646   11.0897    2.1147 C   0  0  2  0  0  0  0  0  0  0  0  0
   29.3183   11.0603    2.9329 C   0  0  2  0  0  0  0  0  0  0  0  0
   30.1280    9.9697    2.3545 O   0  0  0  0  0  0  0  0  0  0  0  0
   28.9836   10.7735    4.4844 C   0  0  1  0  0  0  0  0  0  0  0  0
   30.1867   10.7436    5.1853 O   0  0  0  0  0  0  0  0  0  0  0  0
   31.4147    9.8968    2.3119 C   0  0  1  0  0  0  0  0  0  0  0  0
   32.1716   10.6474    3.4469 C   0  0  2  0  0  0  0  0  0  0  0  0
   32.4409   11.9408    3.0059 O   0  0  0  0  0  0  0  0  0  0  0  0
   33.3895    9.8206    3.4819 C   0  0  1  0  0  0  0  0  0  0  0  0
   32.9720    8.3313    3.2797 C   0  0  2  0  0  0  0  0  0  0  0  0
   31.9554    8.5355    2.3293 O   0  0  0  0  0  0  0  0  0  0  0  0
   32.6309    7.5015    4.5182 C   0  0  0  0  0  0  0  0  0  0  0  0
   31.5069    8.1219    5.1136 O   0  0  0  0  0  0  0  0  0  0  0  0
   35.2729    9.5070    1.9399 C   0  0  2  0  0  0  0  0  0  0  0  0
   34.2778   10.3279    2.3865 O   0  0  0  0  0  0  0  0  0  0  0  0
   36.3190   10.2566    1.1686 C   0  0  1  0  0  0  0  0  0  0  0  0
   34.0300    5.4784    0.3571 N   0  0  0  0  0  0  0  0  0  0  0  0
   27.7697   13.7223    9.7340 O   0  0  0  0  0  0  0  0  0  0  0  0
   37.4069    9.2427    0.6409 C   0  0  2  0  0  0  0  0  0  0  0  0
   36.8168    8.0906   -0.2442 C   0  0  1  0  0  0  0  0  0  0  0  0
   35.8209    7.3786    0.5219 C   0  0  1  0  0  0  0  0  0  0  0  0
   34.7621    8.3324    1.0418 O   0  0  0  0  0  0  0  0  0  0  0  0
   35.1621    6.2248   -0.3543 C   0  0  0  0  0  0  0  0  0  0  0  0
   35.7350   10.8906    0.0535 N   0  0  0  0  0  0  0  0  0  0  0  0
   24.5310    9.8849   -0.0354 O   0  0  0  0  0  0  0  0  0  0  0  0
   26.1473   12.4239    8.8165 C   0  0  0  0  0  0  0  0  0  0  0  0
   36.3132    8.5616   -1.1618 O   0  0  0  0  0  0  0  0  0  0  0  0
   37.9005    8.7413    1.5509 O   0  0  0  0  0  0  0  0  0  0  0  0
   27.9256   12.9833    7.3586 C   0  0  0  0  0  0  0  0  0  0  0  0
   25.7532   11.8939   10.0247 C   0  0  0  0  0  0  0  0  0  0  0  0
   27.4623   12.6331    8.8666 C   0  0  1  0  0  0  0  0  0  0  0  0
   25.9370    7.6640   -0.4736 F   0  0  0  0  0  0  0  0  0  0  0  0
  1  2  1  1  0  0  0
  1 10  1  0  0  0  0
  1  3  1  0  0  0  0
  3  4  1  1  0  0  0
  3  6  1  0  0  0  0
  5 46  2  0  0  0  0
  6 42  1  6  0  0  0
  6  8  1  0  0  0  0
  7 47  1  0  0  0  0
  8  9  1  0  0  0  0
  8 49  1  6  0  0  0
  9 10  1  0  0  0  0
  9 11  1  6  0  0  0
 11 12  1  0  0  0  0
 13 14  1  1  0  0  0
 13 15  1  0  0  0  0
 13 21  1  0  0  0  0
 14 46  1  0  0  0  0
 15 16  1  0  0  0  0
 16 17  1  6  0  0  0
 16 18  1  0  0  0  0
 18  2  1  6  0  0  0
 18 19  1  0  0  0  0
 19 20  1  6  0  0  0
 19 21  1  0  0  0  0
 21 22  1  1  0  0  0
 23 20  1  1  0  0  0
 23 24  1  0  0  0  0
 23 28  1  0  0  0  0
 24 25  1  6  0  0  0
 24 26  1  0  0  0  0
 26 27  1  0  0  0  0
 26 32  1  6  0  0  0
 27 28  1  0  0  0  0
 27 29  1  1  0  0  0
 29 30  1  0  0  0  0
 31 32  1  6  0  0  0
 31 33  1  0  0  0  0
 31 39  1  0  0  0  0
 33 36  1  0  0  0  0
 33 41  1  6  0  0  0
 34 40  1  0  0  0  0
 35 48  1  0  0  0  0
 36 37  1  0  0  0  0
 36 45  1  1  0  0  0
 37 38  1  0  0  0  0
 37 44  1  6  0  0  0
 38 39  1  0  0  0  0
 38 40  1  6  0  0  0
 43 47  1  0  0  0  0
 46 48  1  0  0  0  0
 48 43  1  6  0  0  0
M  END
>  <CHROM.1>
82.67906752,-127.75009398,-68.47531983,-110.79737176,150.78824214,27.85069587
-160.77522709,62.32905685,-162.74309148,-176.28796593,-60.71229329,-71.08013294
-5.87670847,30.25324985,10.01311088,2.81544560,2.54719816,-0.13628329,1.20219671

>  <Name>
ligand

>  <RI>
0

>  <Rbt.Current_Directory>
/home/itssahil/PROJECTS/Mol_Feturizer/New_Systems/rnas/4PDQ

>  <Rbt.Executable>
rbdock ($Id: //depot/dev/client3/rdock/2013.1/src/exe/rbdock.cxx#4 $)

>  <Rbt.Library>
libRbt.so (2013.1, Build901 2013/11/27)

>  <Rbt.Parameter_File>
/export/apps/rDock/src/rDock_2013.1_src/data/scripts/dock_solv.prm

>  <Rbt.Receptor>
prm/pocket_docking_4.prm

>  <SCORE>
2.93992

>  <SCORE.INTER>
3.82014

>  <SCORE.INTER.CONST>
1

>  <SCORE.INTER.POLAR>
0

>  <SCORE.INTER.ROT>
13

>  <SCORE.INTER.SOLV>
15.2642

>  <SCORE.INTER.VDW>
-14.808

>  <SCORE.INTER.norm>
0.077962

>  <SCORE.INTRA>
-1.34028

>  <SCORE.INTRA.DIHEDRAL>
-12.1017

>  <SCORE.INTRA.DIHEDRAL.0>
34.5115

>  <SCORE.INTRA.POLAR>
0

>  <SCORE.INTRA.POLAR.0>
0

>  <SCORE.INTRA.REPUL>
0

>  <SCORE.INTRA.REPUL.0>
0

>  <SCORE.INTRA.SOLV>
3.533

>  <SCORE.INTRA.SOLV.lig_0>
-122.812

>  <SCORE.INTRA.VDW>
2.94404

>  <SCORE.INTRA.VDW.0>
-7.46208

>  <SCORE.INTRA.norm>
-0.0273528

>  <SCORE.RESTR>
0.46007

>  <SCORE.RESTR.CAVITY>
0.46007

>  <SCORE.RESTR.norm>
0.00938918

>  <SCORE.SYSTEM>
0

>  <SCORE.SYSTEM.CONST>
0

>  <SCORE.SYSTEM.DIHEDRAL>
0

>  <SCORE.SYSTEM.SOLV>
0

>  <SCORE.SYSTEM.norm>
0

>  <SCORE.heavy>
49

>  <SCORE.norm>
0.0599984

>  <RMSD>
8.801

$$$$
ligand
 OpenBabel11021811513D
libRbt.so/2013.1/901 2013/11/27
 49 52  0  0  0  0  0  0  0  0999 V2000
   24.9625    9.6189    2.4063 C   0  0  2  0  0  0  0  0  0  0  0  0
   26.0589   10.0251    3.1711 O   0  0  0  0  0  0  0  0  0  0  0  0
   25.3115    8.2872    1.6434 C   0  0  2  0  0  0  0  0  0  0  0  0
   25.6780    7.2138    2.6563 N   0  0  0  0  0  0  0  0  0  0  0  0
   27.4688    8.6411    8.6776 O   0  0  0  0  0  0  0  0  0  0  0  0
   26.4602    8.5286    0.6363 C   0  0  2  0  0  0  0  0  0  0  0  0
   26.1672    6.9039   10.5464 N   0  0  0  0  0  0  0  0  0  0  0  0
   26.0745    9.6300   -0.3635 C   0  0  2  0  0  0  0  0  0  0  0  0
   25.7133   10.9903    0.3704 C   0  0  2  0  0  0  0  0  0  0  0  0
   24.6136   10.6925    1.3913 O   0  0  0  0  0  0  0  0  0  0  0  0
   25.2703   12.0841   -0.6440 C   0  0  0  0  0  0  0  0  0  0  0  0
   26.2573   12.4006   -1.6134 N   0  0  0  0  0  0  0  0  0  0  0  0
   26.7196   11.1041    7.3186 C   0  0  2  0  0  0  0  0  0  0  0  0
   26.7780   10.9745    8.8042 N   0  0  0  0  0  0  0  0  0  0  0  0
   25.3097   10.4972    6.8495 C   0  0  0  0  0  0  0  0  0  0  0  0
   25.1532   10.6167    5.2876 C   0  0  2  0  0  0  0  0  0  0  0  0
   23.8734   10.0455    4.8430 N   0  0  0  0  0  0  0  0  0  0  0  0
   26.2928    9.8592    4.5773 C   0  0  2  0  0  0  0  0  0  0  0  0
   27.6993   10.4311    5.0217 C   0  0  2  0  0  0  0  0  0  0  0  0
   28.7143    9.6509    4.2864 O   0  0  0  0  0  0  0  0  0  0  0  0
   27.8613   10.2371    6.6147 C   0  0  1  0  0  0  0  0  0  0  0  0
   29.1069   10.7386    6.9843 O   0  0  0  0  0  0  0  0  0  0  0  0
   29.9327    9.9963    4.0433 C   0  0  1  0  0  0  0  0  0  0  0  0
   30.1205   11.0770    2.9381 C   0  0  2  0  0  0  0  0  0  0  0  0
   30.2842   10.4248    1.7183 O   0  0  0  0  0  0  0  0  0  0  0  0
   31.3846   11.6615    3.4157 C   0  0  1  0  0  0  0  0  0  0  0  0
   31.3331   11.7244    4.9736 C   0  0  2  0  0  0  0  0  0  0  0  0
   30.6719   10.5039    5.2015 O   0  0  0  0  0  0  0  0  0  0  0  0
   30.7539   12.9796    5.6277 C   0  0  0  0  0  0  0  0  0  0  0  0
   29.3712   12.9814    5.3263 O   0  0  0  0  0  0  0  0  0  0  0  0
   32.8613   10.9140    1.6035 C   0  0  2  0  0  0  0  0  0  0  0  0
   32.4806   10.7747    2.9070 O   0  0  0  0  0  0  0  0  0  0  0  0
   32.9782    9.5910    0.9054 C   0  0  1  0  0  0  0  0  0  0  0  0
   36.4803   13.1180   -1.4468 N   0  0  0  0  0  0  0  0  0  0  0  0
   27.5382   10.9680   11.4309 O   0  0  0  0  0  0  0  0  0  0  0  0
   33.4694    9.8229   -0.5761 C   0  0  2  0  0  0  0  0  0  0  0  0
   34.8288   10.5983   -0.6745 C   0  0  1  0  0  0  0  0  0  0  0  0
   34.6885   11.8703   -0.0051 C   0  0  1  0  0  0  0  0  0  0  0  0
   34.2162   11.6748    1.4231 O   0  0  0  0  0  0  0  0  0  0  0  0
   36.0612   12.6750   -0.0421 C   0  0  0  0  0  0  0  0  0  0  0  0
   33.9291    8.7824    1.5597 N   0  0  0  0  0  0  0  0  0  0  0  0
   26.6670    7.5592    0.0673 O   0  0  0  0  0  0  0  0  0  0  0  0
   25.9857    9.3109   11.3722 C   0  0  0  0  0  0  0  0  0  0  0  0
   35.6356    9.9829   -0.1379 O   0  0  0  0  0  0  0  0  0  0  0  0
   32.6828   10.4637   -1.1181 O   0  0  0  0  0  0  0  0  0  0  0  0
   27.1777    9.6378    9.3540 C   0  0  0  0  0  0  0  0  0  0  0  0
   25.9517    7.9395   11.4919 C   0  0  0  0  0  0  0  0  0  0  0  0
   27.2069    9.6600   10.9696 C   0  0  1  0  0  0  0  0  0  0  0  0
   24.9554    9.2261   -1.1130 F   0  0  0  0  0  0  0  0  0  0  0  0
  1  2  1  6  0  0  0
  1 10  1  0  0  0  0
  1  3  1  0  0  0  0
  3  4  1  1  0  0  0
  3  6  1  0  0  0  0
  5 46  2  0  0  0  0
  6 42  1  6  0  0  0
  6  8  1  0  0  0  0
  7 47  1  0  0  0  0
  8  9  1  0  0  0  0
  8 49  1  1  0  0  0
  9 10  1  0  0  0  0
  9 11  1  6  0  0  0
 11 12  1  0  0  0  0
 13 14  1  1  0  0  0
 13 15  1  0  0  0  0
 13 21  1  0  0  0  0
 14 46  1  0  0  0  0
 15 16  1  0  0  0  0
 16 17  1  6  0  0  0
 16 18  1  0  0  0  0
 18  2  1  6  0  0  0
 18 19  1  0  0  0  0
 19 20  1  6  0  0  0
 19 21  1  0  0  0  0
 21 22  1  1  0  0  0
 23 20  1  1  0  0  0
 23 24  1  0  0  0  0
 23 28  1  0  0  0  0
 24 25  1  6  0  0  0
 24 26  1  0  0  0  0
 26 27  1  0  0  0  0
 26 32  1  1  0  0  0
 27 28  1  0  0  0  0
 27 29  1  6  0  0  0
 29 30  1  0  0  0  0
 31 32  1  1  0  0  0
 31 33  1  0  0  0  0
 31 39  1  0  0  0  0
 33 36  1  0  0  0  0
 33 41  1  1  0  0  0
 34 40  1  0  0  0  0
 35 48  1  0  0  0  0
 36 37  1  0  0  0  0
 36 45  1  6  0  0  0
 37 38  1  0  0  0  0
 37 44  1  1  0  0  0
 38 39  1  0  0  0  0
 38 40  1  1  0  0  0
 43 47  1  0  0  0  0
 46 48  1  0  0  0  0
 48 43  1  1  0  0  0
M  END
>  <CHROM.1>
-100.11781487,-61.34301044,-59.60439463,81.35141635,158.89922310,-74.56962850
78.97690760,68.30897622,-133.20880666,66.72202913,-59.95074873,-151.49751128
148.99095755,28.92534449,10.30435060,3.65423558,2.27444255,0.18063713,1.58950254

>  <Name>
ligand

>  <RI>
0

>  <Rbt.Current_Directory>
/home/itssahil/PROJECTS/Mol_Feturizer/New_Systems/rnas/4PDQ

>  <Rbt.Executable>
rbdock ($Id: //depot/dev/client3/rdock/2013.1/src/exe/rbdock.cxx#4 $)

>  <Rbt.Library>
libRbt.so (2013.1, Build901 2013/11/27)

>  <Rbt.Parameter_File>
/export/apps/rDock/src/rDock_2013.1_src/data/scripts/dock_solv.prm

>  <Rbt.Receptor>
prm/pocket_docking_2.prm

>  <SCORE>
6.16962

>  <SCORE.INTER>
2.21879

>  <SCORE.INTER.CONST>
1

>  <SCORE.INTER.POLAR>
0

>  <SCORE.INTER.ROT>
13

>  <SCORE.INTER.SOLV>
20.4262

>  <SCORE.INTER.VDW>
-17.5962

>  <SCORE.INTER.norm>
0.0452815

>  <SCORE.INTRA>
-0.038743

>  <SCORE.INTRA.DIHEDRAL>
-13.3701

>  <SCORE.INTRA.DIHEDRAL.0>
34.5115

>  <SCORE.INTRA.POLAR>
0

>  <SCORE.INTRA.POLAR.0>
0

>  <SCORE.INTRA.REPUL>
0

>  <SCORE.INTRA.REPUL.0>
0

>  <SCORE.INTRA.SOLV>
3.47227

>  <SCORE.INTRA.SOLV.lig_0>
-122.812

>  <SCORE.INTRA.VDW>
4.91018

>  <SCORE.INTRA.VDW.0>
-7.46208

>  <SCORE.INTRA.norm>
-0.000790673

>  <SCORE.RESTR>
3.98957

>  <SCORE.RESTR.CAVITY>
3.98957

>  <SCORE.RESTR.norm>
0.0814199

>  <SCORE.SYSTEM>
0

>  <SCORE.SYSTEM.CONST>
0

>  <SCORE.SYSTEM.DIHEDRAL>
0

>  <SCORE.SYSTEM.SOLV>
0

>  <SCORE.SYSTEM.norm>
0

>  <SCORE.heavy>
49

>  <SCORE.norm>
0.125911

>  <RMSD>
8.814

$$$$
ligand
 OpenBabel11021811513D
libRbt.so/2013.1/901 2013/11/27
 49 52  0  0  0  0  0  0  0  0999 V2000
   24.7405    9.9685    1.3574 C   0  0  2  0  0  0  0  0  0  0  0  0
   25.7916    9.1517    1.7814 O   0  0  0  0  0  0  0  0  0  0  0  0
   23.9251    9.2397    0.2255 C   0  0  2  0  0  0  0  0  0  0  0  0
   23.3886    7.9236    0.7663 N   0  0  0  0  0  0  0  0  0  0  0  0
   24.8670   10.5014    8.1282 O   0  0  0  0  0  0  0  0  0  0  0  0
   24.8137    9.0175   -1.0206 C   0  0  2  0  0  0  0  0  0  0  0  0
   25.1775    6.9208   10.2668 N   0  0  0  0  0  0  0  0  0  0  0  0
   25.3595   10.3583   -1.5363 C   0  0  2  0  0  0  0  0  0  0  0  0
   26.1876   11.1247   -0.4198 C   0  0  2  0  0  0  0  0  0  0  0  0
   25.2884   11.2737    0.8088 O   0  0  0  0  0  0  0  0  0  0  0  0
   26.6898   12.5059   -0.9314 C   0  0  0  0  0  0  0  0  0  0  0  0
   27.0641   12.5089   -2.3003 N   0  0  0  0  0  0  0  0  0  0  0  0
   26.7015    9.8548    5.9623 C   0  0  2  0  0  0  0  0  0  0  0  0
   26.9946    9.5653    7.3967 N   0  0  0  0  0  0  0  0  0  0  0  0
   25.4534    8.9365    5.5436 C   0  0  0  0  0  0  0  0  0  0  0  0
   25.0590    9.1981    4.0422 C   0  0  2  0  0  0  0  0  0  0  0  0
   23.9290    8.3475    3.6404 N   0  0  0  0  0  0  0  0  0  0  0  0
   26.2510    8.8870    3.1151 C   0  0  2  0  0  0  0  0  0  0  0  0
   27.5018    9.7741    3.5043 C   0  0  2  0  0  0  0  0  0  0  0  0
   28.5775    9.4094    2.5613 O   0  0  0  0  0  0  0  0  0  0  0  0
   27.9254    9.4395    5.0242 C   0  0  1  0  0  0  0  0  0  0  0  0
   29.0311   10.2233    5.3447 O   0  0  0  0  0  0  0  0  0  0  0  0
   29.8455    9.5723    2.7295 C   0  0  1  0  0  0  0  0  0  0  0  0
   30.5318   10.5779    1.7588 C   0  0  2  0  0  0  0  0  0  0  0  0
   30.9838    9.8684    0.6489 O   0  0  0  0  0  0  0  0  0  0  0  0
   31.6452   10.9955    2.6272 C   0  0  1  0  0  0  0  0  0  0  0  0
   31.1049   11.1176    4.0855 C   0  0  2  0  0  0  0  0  0  0  0  0
   30.2377   10.0102    4.0712 O   0  0  0  0  0  0  0  0  0  0  0  0
   30.5325   12.4630    4.5341 C   0  0  0  0  0  0  0  0  0  0  0  0
   29.1984   12.5027    4.0637 O   0  0  0  0  0  0  0  0  0  0  0  0
   33.3745    9.8681    1.2998 C   0  0  2  0  0  0  0  0  0  0  0  0
   32.7073    9.9472    2.4881 O   0  0  0  0  0  0  0  0  0  0  0  0
   34.4059    8.7784    1.3033 C   0  0  1  0  0  0  0  0  0  0  0  0
   36.6188   12.9777    0.2232 N   0  0  0  0  0  0  0  0  0  0  0  0
   27.2345   10.6021   10.4350 O   0  0  0  0  0  0  0  0  0  0  0  0
   35.1707    8.7775   -0.0770 C   0  0  2  0  0  0  0  0  0  0  0  0
   35.8471   10.1492   -0.4227 C   0  0  1  0  0  0  0  0  0  0  0  0
   34.8346   11.1789   -0.4297 C   0  0  1  0  0  0  0  0  0  0  0  0
   34.0834   11.2005    0.8880 O   0  0  0  0  0  0  0  0  0  0  0  0
   35.4848   12.5994   -0.7338 C   0  0  0  0  0  0  0  0  0  0  0  0
   35.3486    9.0093    2.3251 N   0  0  0  0  0  0  0  0  0  0  0  0
   24.1889    8.5248   -1.8411 O   0  0  0  0  0  0  0  0  0  0  0  0
   25.2866    9.4466   10.6091 C   0  0  0  0  0  0  0  0  0  0  0  0
   36.6159   10.3894    0.3951 O   0  0  0  0  0  0  0  0  0  0  0  0
   34.4060    8.5663   -0.9100 O   0  0  0  0  0  0  0  0  0  0  0  0
   25.9501    9.9625    8.3968 C   0  0  0  0  0  0  0  0  0  0  0  0
   25.1796    8.1322   11.0053 C   0  0  0  0  0  0  0  0  0  0  0  0
   26.4060    9.5735    9.8976 C   0  0  1  0  0  0  0  0  0  0  0  0
   24.2960   11.1857   -1.9382 F   0  0  0  0  0  0  0  0  0  0  0  0
  1  2  1  6  0  0  0
  1 10  1  0  0  0  0
  1  3  1  0  0  0  0
  3  4  1  1  0  0  0
  3  6  1  0  0  0  0
  5 46  2  0  0  0  0
  6 42  1  6  0  0  0
  6  8  1  0  0  0  0
  7 47  1  0  0  0  0
  8  9  1  0  0  0  0
  8 49  1  1  0  0  0
  9 10  1  0  0  0  0
  9 11  1  6  0  0  0
 11 12  1  0  0  0  0
 13 14  1  1  0  0  0
 13 15  1  0  0  0  0
 13 21  1  0  0  0  0
 14 46  1  0  0  0  0
 15 16  1  0  0  0  0
 16 17  1  6  0  0  0
 16 18  1  0  0  0  0
 18  2  1  6  0  0  0
 18 19  1  0  0  0  0
 19 20  1  6  0  0  0
 19 21  1  0  0  0  0
 21 22  1  1  0  0  0
 23 20  1  1  0  0  0
 23 24  1  0  0  0  0
 23 28  1  0  0  0  0
 24 25  1  6  0  0  0
 24 26  1  0  0  0  0
 26 27  1  0  0  0  0
 26 32  1  1  0  0  0
 27 28  1  0  0  0  0
 27 29  1  6  0  0  0
 29 30  1  0  0  0  0
 31 32  1  1  0  0  0
 31 33  1  0  0  0  0
 31 39  1  0  0  0  0
 33 36  1  0  0  0  0
 33 41  1  1  0  0  0
 34 40  1  0  0  0  0
 35 48  1  0  0  0  0
 36 37  1  0  0  0  0
 36 45  1  6  0  0  0
 37 38  1  0  0  0  0
 37 44  1  1  0  0  0
 38 39  1  0  0  0  0
 38 40  1  1  0  0  0
 43 47  1  0  0  0  0
 46 48  1  0  0  0  0
 48 43  1  1  0  0  0
M  END
>  <CHROM.1>
-137.19372911,22.39904566,-36.12958097,-65.87188922,-158.18855092,-114.53077468
69.82220769,82.23406392,179.96851872,-55.30198241,-55.54304249,-125.42473032
-96.43540108,28.81725052,10.06082347,2.83803314,2.52625588,0.08099311,1.65939602

>  <Name>
ligand

>  <RI>
0

>  <Rbt.Current_Directory>
/home/itssahil/PROJECTS/Mol_Feturizer/New_Systems/rnas/4PDQ

>  <Rbt.Executable>
rbdock ($Id: //depot/dev/client3/rdock/2013.1/src/exe/rbdock.cxx#4 $)

>  <Rbt.Library>
libRbt.so (2013.1, Build901 2013/11/27)

>  <Rbt.Parameter_File>
/export/apps/rDock/src/rDock_2013.1_src/data/scripts/dock_solv.prm

>  <Rbt.Receptor>
prm/pocket_docking_2.prm

>  <SCORE>
32.3647

>  <SCORE.INTER>
3.55481

>  <SCORE.INTER.CONST>
1

>  <SCORE.INTER.POLAR>
0

>  <SCORE.INTER.ROT>
13

>  <SCORE.INTER.SOLV>
29.4454

>  <SCORE.INTER.VDW>
-19.7119

>  <SCORE.INTER.norm>
0.0725472

>  <SCORE.INTRA>
25.9932

>  <SCORE.INTRA.DIHEDRAL>
-4.05983

>  <SCORE.INTRA.DIHEDRAL.0>
34.5115

>  <SCORE.INTRA.POLAR>
0

>  <SCORE.INTRA.POLAR.0>
0

>  <SCORE.INTRA.REPUL>
0

>  <SCORE.INTRA.REPUL.0>
0

>  <SCORE.INTRA.SOLV>
4.31586

>  <SCORE.INTRA.SOLV.lig_0>
-122.812

>  <SCORE.INTRA.VDW>
25.8652

>  <SCORE.INTRA.VDW.0>
-7.46208

>  <SCORE.INTRA.norm>
0.530473

>  <SCORE.RESTR>
2.81671

>  <SCORE.RESTR.CAVITY>
2.81671

>  <SCORE.RESTR.norm>
0.0574838

>  <SCORE.SYSTEM>
0

>  <SCORE.SYSTEM.CONST>
0

>  <SCORE.SYSTEM.DIHEDRAL>
0

>  <SCORE.SYSTEM.SOLV>
0

>  <SCORE.SYSTEM.norm>
0

>  <SCORE.heavy>
49

>  <SCORE.norm>
0.660504

>  <RMSD>
8.827

$$$$
ligand
 OpenBabel11021811513D
libRbt.so/2013.1/901 2013/11/27
 49 52  0  0  0  0  0  0  0  0999 V2000
   24.9220    8.7273    2.2757 C   0  0  2  0  0  0  0  0  0  0  0  0
   26.1828    8.5621    2.8546 O   0  0  0  0  0  0  0  0  0  0  0  0
   24.7959    7.8057    1.0061 C   0  0  2  0  0  0  0  0  0  0  0  0
   25.0038    6.3570    1.4191 N   0  0  0  0  0  0  0  0  0  0  0  0
   24.7286   11.3984    8.5031 O   0  0  0  0  0  0  0  0  0  0  0  0
   25.8146    8.2359   -0.0752 C   0  0  2  0  0  0  0  0  0  0  0  0
   28.1554    8.3540   11.2296 N   0  0  0  0  0  0  0  0  0  0  0  0
   25.5977    9.7074   -0.4614 C   0  0  2  0  0  0  0  0  0  0  0  0
   25.7156   10.6690    0.7960 C   0  0  2  0  0  0  0  0  0  0  0  0
   24.7306   10.1739    1.8567 O   0  0  0  0  0  0  0  0  0  0  0  0
   25.4400   12.1504    0.4074 C   0  0  0  0  0  0  0  0  0  0  0  0
   26.3066   12.6499   -0.5994 N   0  0  0  0  0  0  0  0  0  0  0  0
   26.8123   10.5624    6.6501 C   0  0  2  0  0  0  0  0  0  0  0  0
   27.0429   10.7428    8.1134 N   0  0  0  0  0  0  0  0  0  0  0  0
   25.6502    9.4668    6.4896 C   0  0  0  0  0  0  0  0  0  0  0  0
   25.3241    9.2317    4.9675 C   0  0  2  0  0  0  0  0  0  0  0  0
   24.2745    8.2147    4.8065 N   0  0  0  0  0  0  0  0  0  0  0  0
   26.5831    8.7487    4.2201 C   0  0  2  0  0  0  0  0  0  0  0  0
   27.7515    9.8058    4.3622 C   0  0  2  0  0  0  0  0  0  0  0  0
   28.8989    9.2580    3.6121 O   0  0  0  0  0  0  0  0  0  0  0  0
   28.1103    9.9793    5.9251 C   0  0  1  0  0  0  0  0  0  0  0  0
   29.1445   10.9064    6.0283 O   0  0  0  0  0  0  0  0  0  0  0  0
   29.6844    9.9006    2.8166 C   0  0  1  0  0  0  0  0  0  0  0  0
   29.3504   11.4072    2.6092 C   0  0  2  0  0  0  0  0  0  0  0  0
   28.4975   11.5147    1.5133 O   0  0  0  0  0  0  0  0  0  0  0  0
   30.7049   11.8904    2.2930 C   0  0  1  0  0  0  0  0  0  0  0  0
   31.7163   11.1369    3.2110 C   0  0  2  0  0  0  0  0  0  0  0  0
   31.0997    9.8728    3.1931 O   0  0  0  0  0  0  0  0  0  0  0  0
   32.0487   11.7465    4.5737 C   0  0  0  0  0  0  0  0  0  0  0  0
   32.4521   13.0796    4.3236 O   0  0  0  0  0  0  0  0  0  0  0  0
   32.2112   11.5758    0.3811 C   0  0  2  0  0  0  0  0  0  0  0  0
   30.9249   11.6124    0.8368 O   0  0  0  0  0  0  0  0  0  0  0  0
   32.2793   11.5885   -1.1177 C   0  0  1  0  0  0  0  0  0  0  0  0
   36.6933    8.9460    0.8504 N   0  0  0  0  0  0  0  0  0  0  0  0
   25.3093   12.1203   11.1772 O   0  0  0  0  0  0  0  0  0  0  0  0
   33.7869   11.4930   -1.5737 C   0  0  2  0  0  0  0  0  0  0  0  0
   34.5340   10.2314   -1.0177 C   0  0  1  0  0  0  0  0  0  0  0  0
   34.4633   10.2466    0.4246 C   0  0  1  0  0  0  0  0  0  0  0  0
   33.0223   10.3385    0.8894 O   0  0  0  0  0  0  0  0  0  0  0  0
   35.1728    8.9579    1.0320 C   0  0  0  0  0  0  0  0  0  0  0  0
   31.5928   10.4746   -1.6415 N   0  0  0  0  0  0  0  0  0  0  0  0
   25.6758    7.5795   -1.0005 O   0  0  0  0  0  0  0  0  0  0  0  0
   26.2942   10.0821   10.9886 C   0  0  0  0  0  0  0  0  0  0  0  0
   33.9981    9.2936   -1.4063 O   0  0  0  0  0  0  0  0  0  0  0  0
   34.3434   12.4135   -1.1661 O   0  0  0  0  0  0  0  0  0  0  0  0
   25.8691   11.1821    8.9368 C   0  0  0  0  0  0  0  0  0  0  0  0
   27.5865    9.6134   10.9087 C   0  0  0  0  0  0  0  0  0  0  0  0
   26.2726   11.3197   10.4955 C   0  0  1  0  0  0  0  0  0  0  0  0
   24.3180    9.8723   -1.0204 F   0  0  0  0  0  0  0  0  0  0  0  0
  1  2  1  6  0  0  0
  1 10  1  0  0  0  0
  1  3  1  0  0  0  0
  3  4  1  1  0  0  0
  3  6  1  0  0  0  0
  5 46  2  0  0  0  0
  6 42  1  6  0  0  0
  6  8  1  0  0  0  0
  7 47  1  0  0  0  0
  8  9  1  0  0  0  0
  8 49  1  1  0  0  0
  9 10  1  0  0  0  0
  9 11  1  6  0  0  0
 11 12  1  0  0  0  0
 13 14  1  1  0  0  0
 13 15  1  0  0  0  0
 13 21  1  0  0  0  0
 14 46  1  0  0  0  0
 15 16  1  0  0  0  0
 16 17  1  1  0  0  0
 16 18  1  0  0  0  0
 18  2  1  6  0  0  0
 18 19  1  0  0  0  0
 19 20  1  6  0  0  0
 19 21  1  0  0  0  0
 21 22  1  6  0  0  0
 23 20  1  1  0  0  0
 23 24  1  0  0  0  0
 23 28  1  0  0  0  0
 24 25  1  6  0  0  0
 24 26  1  0  0  0  0
 26 27  1  0  0  0  0
 26 32  1  6  0  0  0
 27 28  1  0  0  0  0
 27 29  1  1  0  0  0
 29 30  1  0  0  0  0
 31 32  1  6  0  0  0
 31 33  1  0  0  0  0
 31 39  1  0  0  0  0
 33 36  1  0  0  0  0
 33 41  1  6  0  0  0
 34 40  1  0  0  0  0
 35 48  1  0  0  0  0
 36 37  1  0  0  0  0
 36 45  1  1  0  0  0
 37 38  1  0  0  0  0
 37 44  1  6  0  0  0
 38 39  1  0  0  0  0
 38 40  1  1  0  0  0
 43 47  1  0  0  0  0
 46 48  1  0  0  0  0
 48 43  1  1  0  0  0
M  END
>  <CHROM.1>
-153.39462170,-1.85465749,-58.00269545,-58.59587852,136.79350541,-1.64287097
-160.14157961,-53.21297661,-167.56791917,68.87852557,-176.68214955,-146.68243975
-19.15464120,28.70569203,10.23776190,3.14786095,2.27483431,0.17641443,1.47937862

>  <Name>
ligand

>  <RI>
0

>  <Rbt.Current_Directory>
/home/itssahil/PROJECTS/Mol_Feturizer/New_Systems/rnas/4PDQ

>  <Rbt.Executable>
rbdock ($Id: //depot/dev/client3/rdock/2013.1/src/exe/rbdock.cxx#4 $)

>  <Rbt.Library>
libRbt.so (2013.1, Build901 2013/11/27)

>  <Rbt.Parameter_File>
/export/apps/rDock/src/rDock_2013.1_src/data/scripts/dock_solv.prm

>  <Rbt.Receptor>
prm/pocket_docking_3.prm

>  <SCORE>
0.558795

>  <SCORE.INTER>
-1.75338

>  <SCORE.INTER.CONST>
1

>  <SCORE.INTER.POLAR>
0

>  <SCORE.INTER.ROT>
13

>  <SCORE.INTER.SOLV>
23.1738

>  <SCORE.INTER.VDW>
-21.1602

>  <SCORE.INTER.norm>
-0.0357833

>  <SCORE.INTRA>
2.24888

>  <SCORE.INTRA.DIHEDRAL>
-4.08795

>  <SCORE.INTRA.DIHEDRAL.0>
34.5115

>  <SCORE.INTRA.POLAR>
0

>  <SCORE.INTRA.POLAR.0>
0

>  <SCORE.INTRA.REPUL>
0

>  <SCORE.INTRA.REPUL.0>
0

>  <SCORE.INTRA.SOLV>
-0.322949

>  <SCORE.INTRA.SOLV.lig_0>
-122.812

>  <SCORE.INTRA.VDW>
4.45433

>  <SCORE.INTRA.VDW.0>
-7.46208

>  <SCORE.INTRA.norm>
0.0458956

>  <SCORE.RESTR>
0.063294

>  <SCORE.RESTR.CAVITY>
0.063294

>  <SCORE.RESTR.norm>
0.00129171

>  <SCORE.SYSTEM>
0

>  <SCORE.SYSTEM.CONST>
0

>  <SCORE.SYSTEM.DIHEDRAL>
0

>  <SCORE.SYSTEM.SOLV>
0

>  <SCORE.SYSTEM.norm>
0

>  <SCORE.heavy>
49

>  <SCORE.norm>
0.011404

>  <RMSD>
8.838

$$$$
ligand
 OpenBabel11021811513D
libRbt.so/2013.1/901 2013/11/27
 49 52  0  0  0  0  0  0  0  0999 V2000
   27.0699    8.6794    3.6892 C   0  0  2  0  0  0  0  0  0  0  0  0
   26.4479    8.7909    2.4432 O   0  0  0  0  0  0  0  0  0  0  0  0
   26.8590    7.2279    4.2599 C   0  0  2  0  0  0  0  0  0  0  0  0
   27.4433    6.2188    3.2838 N   0  0  0  0  0  0  0  0  0  0  0  0
   24.3972   11.0305   -3.2203 O   0  0  0  0  0  0  0  0  0  0  0  0
   25.3569    6.9621    4.5146 C   0  0  2  0  0  0  0  0  0  0  0  0
   24.0222   16.0503   -5.0758 N   0  0  0  0  0  0  0  0  0  0  0  0
   24.7850    8.0053    5.4874 C   0  0  2  0  0  0  0  0  0  0  0  0
   24.9812    9.4844    4.9457 C   0  0  2  0  0  0  0  0  0  0  0  0
   26.4706    9.6828    4.6582 O   0  0  0  0  0  0  0  0  0  0  0  0
   24.4499   10.5374    5.9609 C   0  0  0  0  0  0  0  0  0  0  0  0
   25.2775   10.7023    7.1019 N   0  0  0  0  0  0  0  0  0  0  0  0
   26.4918   11.1397   -1.2016 C   0  0  2  0  0  0  0  0  0  0  0  0
   26.2067   12.2592   -2.1462 N   0  0  0  0  0  0  0  0  0  0  0  0
   25.1017   10.7536   -0.4980 C   0  0  0  0  0  0  0  0  0  0  0  0
   25.3074    9.5563    0.5032 C   0  0  2  0  0  0  0  0  0  0  0  0
   24.0443    9.2063    1.1695 N   0  0  0  0  0  0  0  0  0  0  0  0
   26.3355    9.9373    1.5871 C   0  0  2  0  0  0  0  0  0  0  0  0
   27.7185   10.3282    0.9257 C   0  0  2  0  0  0  0  0  0  0  0  0
   28.6285   10.6661    2.0380 O   0  0  0  0  0  0  0  0  0  0  0  0
   27.4925   11.5970   -0.0440 C   0  0  1  0  0  0  0  0  0  0  0  0
   28.7209   11.9300   -0.6094 O   0  0  0  0  0  0  0  0  0  0  0  0
   29.9144   10.5710    2.0453 C   0  0  1  0  0  0  0  0  0  0  0  0
   30.6296   11.1798    3.2872 C   0  0  2  0  0  0  0  0  0  0  0  0
   30.9401   12.5069    3.0006 O   0  0  0  0  0  0  0  0  0  0  0  0
   31.8310   10.3285    3.2873 C   0  0  1  0  0  0  0  0  0  0  0  0
   31.3993    8.8784    2.9074 C   0  0  2  0  0  0  0  0  0  0  0  0
   30.4316    9.2045    1.9400 O   0  0  0  0  0  0  0  0  0  0  0  0
   30.9874    7.9284    4.0328 C   0  0  0  0  0  0  0  0  0  0  0  0
   32.0345    7.9634    4.9841 O   0  0  0  0  0  0  0  0  0  0  0  0
   34.0497   10.4385    2.2439 C   0  0  2  0  0  0  0  0  0  0  0  0
   32.7775   10.9310    2.2937 O   0  0  0  0  0  0  0  0  0  0  0  0
   34.8730   11.1086    1.1836 C   0  0  1  0  0  0  0  0  0  0  0  0
   34.7436    6.3129    0.4031 N   0  0  0  0  0  0  0  0  0  0  0  0
   23.8373   13.1270   -4.9942 O   0  0  0  0  0  0  0  0  0  0  0  0
   36.3100   10.4575    1.1476 C   0  0  2  0  0  0  0  0  0  0  0  0
   36.2931    8.9080    0.9081 C   0  0  1  0  0  0  0  0  0  0  0  0
   35.5041    8.2852    1.9449 C   0  0  1  0  0  0  0  0  0  0  0  0
   34.1160    8.8945    2.0007 O   0  0  0  0  0  0  0  0  0  0  0  0
   35.4229    6.7123    1.7161 C   0  0  0  0  0  0  0  0  0  0  0  0
   34.2771   10.9225   -0.0799 N   0  0  0  0  0  0  0  0  0  0  0  0
   25.2341    5.9193    4.9660 O   0  0  0  0  0  0  0  0  0  0  0  0
   24.6192   14.3640   -3.2568 C   0  0  0  0  0  0  0  0  0  0  0  0
   35.7990    8.7047   -0.1078 O   0  0  0  0  0  0  0  0  0  0  0  0
   36.8065   10.6289    2.1710 O   0  0  0  0  0  0  0  0  0  0  0  0
   25.0969   12.0495   -3.1326 C   0  0  0  0  0  0  0  0  0  0  0  0
   24.7473   15.5344   -3.9709 C   0  0  0  0  0  0  0  0  0  0  0  0
   24.9026   13.3495   -4.0727 C   0  0  1  0  0  0  0  0  0  0  0  0
   25.4320    7.9052    6.7319 F   0  0  0  0  0  0  0  0  0  0  0  0
  1  2  1  6  0  0  0
  1 10  1  0  0  0  0
  1  3  1  0  0  0  0
  3  4  1  6  0  0  0
  3  6  1  0  0  0  0
  5 46  2  0  0  0  0
  6 42  1  1  0  0  0
  6  8  1  0  0  0  0
  7 47  1  0  0  0  0
  8  9  1  0  0  0  0
  8 49  1  1  0  0  0
  9 10  1  0  0  0  0
  9 11  1  1  0  0  0
 11 12  1  0  0  0  0
 13 14  1  6  0  0  0
 13 15  1  0  0  0  0
 13 21  1  0  0  0  0
 14 46  1  0  0  0  0
 15 16  1  0  0  0  0
 16 17  1  1  0  0  0
 16 18  1  0  0  0  0
 18  2  1  1  0  0  0
 18 19  1  0  0  0  0
 19 20  1  1  0  0  0
 19 21  1  0  0  0  0
 21 22  1  6  0  0  0
 23 20  1  1  0  0  0
 23 24  1  0  0  0  0
 23 28  1  0  0  0  0
 24 25  1  6  0  0  0
 24 26  1  0  0  0  0
 26 27  1  0  0  0  0
 26 32  1  6  0  0  0
 27 28  1  0  0  0  0
 27 29  1  1  0  0  0
 29 30  1  0  0  0  0
 31 32  1  6  0  0  0
 31 33  1  0  0  0  0
 31 39  1  0  0  0  0
 33 36  1  0  0  0  0
 33 41  1  6  0  0  0
 34 40  1  0  0  0  0
 35 48  1  0  0  0  0
 36 37  1  0  0  0  0
 36 45  1  1  0  0  0
 37 38  1  0  0  0  0
 37 44  1  6  0  0  0
 38 39  1  0  0  0  0
 38 40  1  6  0  0  0
 43 47  1  0  0  0  0
 46 48  1  0  0  0  0
 48 43  1  1  0  0  0
M  END
>  <CHROM.1>
177.23890942,-168.45673837,73.50097376,-52.52584191,152.91811245,171.99324989
170.72186821,-51.73714594,178.54713577,-61.98586548,65.21962388,-74.11840536
-0.54049091,28.91633498,10.06182714,1.53568090,2.74541613,0.07975625,-1.02024288

>  <Name>
ligand

>  <RI>
0

>  <Rbt.Current_Directory>
/home/itssahil/PROJECTS/Mol_Feturizer/New_Systems/rnas/4PDQ

>  <Rbt.Executable>
rbdock ($Id: //depot/dev/client3/rdock/2013.1/src/exe/rbdock.cxx#4 $)

>  <Rbt.Library>
libRbt.so (2013.1, Build901 2013/11/27)

>  <Rbt.Parameter_File>
/export/apps/rDock/src/rDock_2013.1_src/data/scripts/dock_solv.prm

>  <Rbt.Receptor>
prm/pocket_docking_4.prm

>  <SCORE>
-11.4443

>  <SCORE.INTER>
-0.549271

>  <SCORE.INTER.CONST>
1

>  <SCORE.INTER.POLAR>
0

>  <SCORE.INTER.ROT>
13

>  <SCORE.INTER.SOLV>
16.9034

>  <SCORE.INTER.VDW>
-18.2673

>  <SCORE.INTER.norm>
-0.0112096

>  <SCORE.INTRA>
-10.9348

>  <SCORE.INTRA.DIHEDRAL>
-27.4486

>  <SCORE.INTRA.DIHEDRAL.0>
34.5115

>  <SCORE.INTRA.POLAR>
0

>  <SCORE.INTRA.POLAR.0>
0

>  <SCORE.INTRA.REPUL>
0

>  <SCORE.INTRA.REPUL.0>
0

>  <SCORE.INTRA.SOLV>
0.0536004

>  <SCORE.INTRA.SOLV.lig_0>
-122.812

>  <SCORE.INTRA.VDW>
2.76271

>  <SCORE.INTRA.VDW.0>
-7.46208

>  <SCORE.INTRA.norm>
-0.223159

>  <SCORE.RESTR>
0.0397205

>  <SCORE.RESTR.CAVITY>
0.0397205

>  <SCORE.RESTR.norm>
0.000810623

>  <SCORE.SYSTEM>
0

>  <SCORE.SYSTEM.CONST>
0

>  <SCORE.SYSTEM.DIHEDRAL>
0

>  <SCORE.SYSTEM.SOLV>
0

>  <SCORE.SYSTEM.norm>
0

>  <SCORE.heavy>
49

>  <SCORE.norm>
-0.233558

>  <RMSD>
8.868

$$$$
ligand
 OpenBabel11021811513D
libRbt.so/2013.1/901 2013/11/27
 49 52  0  0  0  0  0  0  0  0999 V2000
   25.3589    7.3092    2.0962 C   0  0  2  0  0  0  0  0  0  0  0  0
   26.2785    8.0074    2.8830 O   0  0  0  0  0  0  0  0  0  0  0  0
   26.1234    6.4558    1.0172 C   0  0  2  0  0  0  0  0  0  0  0  0
   27.0618    5.4877    1.7206 N   0  0  0  0  0  0  0  0  0  0  0  0
   25.2853   10.2457    8.0769 O   0  0  0  0  0  0  0  0  0  0  0  0
   26.8920    7.3806    0.0446 C   0  0  2  0  0  0  0  0  0  0  0  0
   26.9440   13.5409    9.0672 N   0  0  0  0  0  0  0  0  0  0  0  0
   25.9266    8.3619   -0.6384 C   0  0  2  0  0  0  0  0  0  0  0  0
   25.1346    9.2404    0.4201 C   0  0  2  0  0  0  0  0  0  0  0  0
   24.4358    8.2858    1.3900 O   0  0  0  0  0  0  0  0  0  0  0  0
   24.1191   10.1921   -0.2762 C   0  0  0  0  0  0  0  0  0  0  0  0
   24.7236   11.1457   -1.1360 N   0  0  0  0  0  0  0  0  0  0  0  0
   24.8905   11.2692    5.3804 C   0  0  2  0  0  0  0  0  0  0  0  0
   24.4734   12.0109    6.6063 N   0  0  0  0  0  0  0  0  0  0  0  0
   24.1580    9.8416    5.4236 C   0  0  0  0  0  0  0  0  0  0  0  0
   24.5254    8.9975    4.1465 C   0  0  2  0  0  0  0  0  0  0  0  0
   23.8762    7.6788    4.1842 N   0  0  0  0  0  0  0  0  0  0  0  0
   26.0502    8.7829    4.0688 C   0  0  2  0  0  0  0  0  0  0  0  0
   26.8040   10.1732    4.0290 C   0  0  2  0  0  0  0  0  0  0  0  0
   28.2446    9.8609    3.9480 O   0  0  0  0  0  0  0  0  0  0  0  0
   26.4630   10.9899    5.3774 C   0  0  1  0  0  0  0  0  0  0  0  0
   27.1411   12.2053    5.3268 O   0  0  0  0  0  0  0  0  0  0  0  0
   29.0829   10.2871    3.0658 C   0  0  1  0  0  0  0  0  0  0  0  0
   28.8315   11.7299    2.5370 C   0  0  2  0  0  0  0  0  0  0  0  0
   28.0152   11.6424    1.4118 O   0  0  0  0  0  0  0  0  0  0  0  0
   30.2168   12.0761    2.1777 C   0  0  1  0  0  0  0  0  0  0  0  0
   31.1634   11.4883    3.2693 C   0  0  2  0  0  0  0  0  0  0  0  0
   30.4843   10.2769    3.4922 O   0  0  0  0  0  0  0  0  0  0  0  0
   31.4892   12.3550    4.4866 C   0  0  0  0  0  0  0  0  0  0  0  0
   32.3326   11.5756    5.3136 O   0  0  0  0  0  0  0  0  0  0  0  0
   31.6800   11.7037    0.2428 C   0  0  2  0  0  0  0  0  0  0  0  0
   30.4619   11.4894    0.8205 O   0  0  0  0  0  0  0  0  0  0  0  0
   31.7672   11.1034   -1.1295 C   0  0  1  0  0  0  0  0  0  0  0  0
   35.1988    9.3062    1.8029 N   0  0  0  0  0  0  0  0  0  0  0  0
   22.9412   11.8812    9.5644 O   0  0  0  0  0  0  0  0  0  0  0  0
   33.2128   11.3433   -1.7147 C   0  0  2  0  0  0  0  0  0  0  0  0
   34.3604   10.7734   -0.8108 C   0  0  1  0  0  0  0  0  0  0  0  0
   34.2618   11.3724    0.4996 C   0  0  1  0  0  0  0  0  0  0  0  0
   32.8792   11.1558    1.0849 O   0  0  0  0  0  0  0  0  0  0  0  0
   35.3834   10.7886    1.4662 C   0  0  0  0  0  0  0  0  0  0  0  0
   31.5479    9.7127   -1.0628 N   0  0  0  0  0  0  0  0  0  0  0  0
   27.4044    6.7407   -0.7518 O   0  0  0  0  0  0  0  0  0  0  0  0
   25.1289   12.1009   10.1351 C   0  0  0  0  0  0  0  0  0  0  0  0
   34.2139    9.6392   -0.7130 O   0  0  0  0  0  0  0  0  0  0  0  0
   33.3844   12.4782   -1.7912 O   0  0  0  0  0  0  0  0  0  0  0  0
   24.7416   11.3489    7.9248 C   0  0  0  0  0  0  0  0  0  0  0  0
   26.0401   13.1318   10.0814 C   0  0  0  0  0  0  0  0  0  0  0  0
   24.2474   12.2774    9.1516 C   0  0  1  0  0  0  0  0  0  0  0  0
   24.9881    7.6525   -1.4087 F   0  0  0  0  0  0  0  0  0  0  0  0
  1  2  1  6  0  0  0
  1 10  1  0  0  0  0
  1  3  1  0  0  0  0
  3  4  1  1  0  0  0
  3  6  1  0  0  0  0
  5 46  2  0  0  0  0
  6 42  1  6  0  0  0
  6  8  1  0  0  0  0
  7 47  1  0  0  0  0
  8  9  1  0  0  0  0
  8 49  1  1  0  0  0
  9 10  1  0  0  0  0
  9 11  1  6  0  0  0
 11 12  1  0  0  0  0
 13 14  1  1  0  0  0
 13 15  1  0  0  0  0
 13 21  1  0  0  0  0
 14 46  1  0  0  0  0
 15 16  1  0  0  0  0
 16 17  1  1  0  0  0
 16 18  1  0  0  0  0
 18  2  1  6  0  0  0
 18 19  1  0  0  0  0
 19 20  1  1  0  0  0
 19 21  1  0  0  0  0
 21 22  1  6  0  0  0
 23 20  1  1  0  0  0
 23 24  1  0  0  0  0
 23 28  1  0  0  0  0
 24 25  1  6  0  0  0
 24 26  1  0  0  0  0
 26 27  1  0  0  0  0
 26 32  1  6  0  0  0
 27 28  1  0  0  0  0
 27 29  1  1  0  0  0
 29 30  1  0  0  0  0
 31 32  1  1  0  0  0
 31 33  1  0  0  0  0
 31 39  1  0  0  0  0
 33 36  1  0  0  0  0
 33 41  1  1  0  0  0
 34 40  1  0  0  0  0
 35 48  1  0  0  0  0
 36 37  1  0  0  0  0
 36 45  1  1  0  0  0
 37 38  1  0  0  0  0
 37 44  1  1  0  0  0
 38 39  1  0  0  0  0
 38 40  1  1  0  0  0
 43 47  1  0  0  0  0
 46 48  1  0  0  0  0
 48 43  1  1  0  0  0
M  END
>  <CHROM.1>
-172.30251768,-13.45395344,-62.55512503,56.77871413,125.83517553,34.05770037
178.35491165,178.87048815,-177.93771255,-66.95661379,-60.41151509,-143.60139589
-84.94876512,28.17873249,10.28990381,2.87861030,2.47449444,0.32837239,1.12960218

>  <Name>
ligand

>  <RI>
0

>  <Rbt.Current_Directory>
/home/itssahil/PROJECTS/Mol_Feturizer/New_Systems/rnas/4PDQ

>  <Rbt.Executable>
rbdock ($Id: //depot/dev/client3/rdock/2013.1/src/exe/rbdock.cxx#4 $)

>  <Rbt.Library>
libRbt.so (2013.1, Build901 2013/11/27)

>  <Rbt.Parameter_File>
/export/apps/rDock/src/rDock_2013.1_src/data/scripts/dock_solv.prm

>  <Rbt.Receptor>
prm/pocket_docking_5.prm

>  <SCORE>
-7.78516

>  <SCORE.INTER>
-7.31669

>  <SCORE.INTER.CONST>
1

>  <SCORE.INTER.POLAR>
0

>  <SCORE.INTER.ROT>
13

>  <SCORE.INTER.SOLV>
19.8757

>  <SCORE.INTER.VDW>
-23.7697

>  <SCORE.INTER.norm>
-0.14932

>  <SCORE.INTRA>
-0.468468

>  <SCORE.INTRA.DIHEDRAL>
-12.4371

>  <SCORE.INTRA.DIHEDRAL.0>
34.5115

>  <SCORE.INTRA.POLAR>
0

>  <SCORE.INTRA.POLAR.0>
0

>  <SCORE.INTRA.REPUL>
0

>  <SCORE.INTRA.REPUL.0>
0

>  <SCORE.INTRA.SOLV>
1.77115

>  <SCORE.INTRA.SOLV.lig_0>
-122.812

>  <SCORE.INTRA.VDW>
4.86451

>  <SCORE.INTRA.VDW.0>
-7.46208

>  <SCORE.INTRA.norm>
-0.00956057

>  <SCORE.RESTR>
0

>  <SCORE.RESTR.CAVITY>
0

>  <SCORE.RESTR.norm>
0

>  <SCORE.SYSTEM>
0

>  <SCORE.SYSTEM.CONST>
0

>  <SCORE.SYSTEM.DIHEDRAL>
0

>  <SCORE.SYSTEM.SOLV>
0

>  <SCORE.SYSTEM.norm>
0

>  <SCORE.heavy>
49

>  <SCORE.norm>
-0.158881

>  <RMSD>
8.911

$$$$
ligand
 OpenBabel11021811513D
libRbt.so/2013.1/901 2013/11/27
 49 52  0  0  0  0  0  0  0  0999 V2000
   27.0274    8.9589    6.9363 C   0  0  2  0  0  0  0  0  0  0  0  0
   26.3619    8.5304    5.7849 O   0  0  0  0  0  0  0  0  0  0  0  0
   27.4578    7.7125    7.7955 C   0  0  2  0  0  0  0  0  0  0  0  0
   28.3635    6.8205    6.9610 N   0  0  0  0  0  0  0  0  0  0  0  0
   24.3092    8.0359   -0.3749 O   0  0  0  0  0  0  0  0  0  0  0  0
   26.2110    6.9439    8.2921 C   0  0  2  0  0  0  0  0  0  0  0  0
   24.6244   12.6968   -3.3381 N   0  0  0  0  0  0  0  0  0  0  0  0
   25.3023    7.8703    9.1153 C   0  0  2  0  0  0  0  0  0  0  0  0
   24.8484    9.1421    8.2809 C   0  0  2  0  0  0  0  0  0  0  0  0
   26.1100    9.8382    7.7669 O   0  0  0  0  0  0  0  0  0  0  0  0
   23.9745   10.1029    9.1381 C   0  0  0  0  0  0  0  0  0  0  0  0
   22.7631    9.5219    9.5953 N   0  0  0  0  0  0  0  0  0  0  0  0
   26.1053    9.3124    1.5275 C   0  0  2  0  0  0  0  0  0  0  0  0
   25.6817    9.9510    0.2469 N   0  0  0  0  0  0  0  0  0  0  0  0
   24.7754    9.0676    2.3924 C   0  0  0  0  0  0  0  0  0  0  0  0
   25.1299    8.3702    3.7585 C   0  0  2  0  0  0  0  0  0  0  0  0
   23.9215    8.1587    4.5690 N   0  0  0  0  0  0  0  0  0  0  0  0
   26.1068    9.2465    4.5676 C   0  0  2  0  0  0  0  0  0  0  0  0
   27.4291    9.5110    3.7404 C   0  0  2  0  0  0  0  0  0  0  0  0
   28.2940   10.3452    4.5980 O   0  0  0  0  0  0  0  0  0  0  0  0
   27.0457   10.2838    2.3776 C   0  0  1  0  0  0  0  0  0  0  0  0
   28.2221   10.5139    1.6685 O   0  0  0  0  0  0  0  0  0  0  0  0
   29.5720   10.4895    4.5050 C   0  0  1  0  0  0  0  0  0  0  0  0
   30.1858   11.6380    5.3587 C   0  0  2  0  0  0  0  0  0  0  0  0
   30.2108   12.7915    4.5785 O   0  0  0  0  0  0  0  0  0  0  0  0
   31.5347   11.0772    5.5429 C   0  0  1  0  0  0  0  0  0  0  0  0
   31.3958    9.5391    5.7634 C   0  0  2  0  0  0  0  0  0  0  0  0
   30.3530    9.2993    4.8503 O   0  0  0  0  0  0  0  0  0  0  0  0
   31.2202    9.0267    7.1936 C   0  0  0  0  0  0  0  0  0  0  0  0
   30.0832    9.6886    7.7149 O   0  0  0  0  0  0  0  0  0  0  0  0
   32.1440   10.6203    3.2098 C   0  0  2  0  0  0  0  0  0  0  0  0
   32.3081   11.4181    4.3053 O   0  0  0  0  0  0  0  0  0  0  0  0
   33.0507    9.4252    3.2413 C   0  0  1  0  0  0  0  0  0  0  0  0
   31.4043   12.5294   -0.8954 N   0  0  0  0  0  0  0  0  0  0  0  0
   23.5399    9.1999   -2.8066 O   0  0  0  0  0  0  0  0  0  0  0  0
   32.8454    8.5780    1.9260 C   0  0  2  0  0  0  0  0  0  0  0  0
   33.0853    9.3933    0.6082 C   0  0  1  0  0  0  0  0  0  0  0  0
   32.1959   10.5310    0.5963 C   0  0  1  0  0  0  0  0  0  0  0  0
   32.3736   11.3630    1.8522 O   0  0  0  0  0  0  0  0  0  0  0  0
   32.4360   11.4138   -0.7060 C   0  0  0  0  0  0  0  0  0  0  0  0
   34.3964    9.8414    3.2875 N   0  0  0  0  0  0  0  0  0  0  0  0
   26.5481    6.0691    8.9459 O   0  0  0  0  0  0  0  0  0  0  0  0
   23.7442   11.0898   -1.5630 C   0  0  0  0  0  0  0  0  0  0  0  0
   34.1698    9.7692    0.6082 O   0  0  0  0  0  0  0  0  0  0  0  0
   31.7531    8.2183    1.8985 O   0  0  0  0  0  0  0  0  0  0  0  0
   24.7547    9.1637   -0.6303 C   0  0  0  0  0  0  0  0  0  0  0  0
   23.6461   11.9452   -2.6376 C   0  0  0  0  0  0  0  0  0  0  0  0
   24.3791    9.9902   -1.9672 C   0  0  1  0  0  0  0  0  0  0  0  0
   25.9857    8.3183   10.2596 F   0  0  0  0  0  0  0  0  0  0  0  0
  1  2  1  6  0  0  0
  1 10  1  0  0  0  0
  1  3  1  0  0  0  0
  3  4  1  6  0  0  0
  3  6  1  0  0  0  0
  5 46  2  0  0  0  0
  6 42  1  1  0  0  0
  6  8  1  0  0  0  0
  7 47  1  0  0  0  0
  8  9  1  0  0  0  0
  8 49  1  1  0  0  0
  9 10  1  0  0  0  0
  9 11  1  1  0  0  0
 11 12  1  0  0  0  0
 13 14  1  6  0  0  0
 13 15  1  0  0  0  0
 13 21  1  0  0  0  0
 14 46  1  0  0  0  0
 15 16  1  0  0  0  0
 16 17  1  1  0  0  0
 16 18  1  0  0  0  0
 18  2  1  1  0  0  0
 18 19  1  0  0  0  0
 19 20  1  1  0  0  0
 19 21  1  0  0  0  0
 21 22  1  6  0  0  0
 23 20  1  1  0  0  0
 23 24  1  0  0  0  0
 23 28  1  0  0  0  0
 24 25  1  6  0  0  0
 24 26  1  0  0  0  0
 26 27  1  0  0  0  0
 26 32  1  6  0  0  0
 27 28  1  0  0  0  0
 27 29  1  1  0  0  0
 29 30  1  0  0  0  0
 31 32  1  1  0  0  0
 31 33  1  0  0  0  0
 31 39  1  0  0  0  0
 33 36  1  0  0  0  0
 33 41  1  6  0  0  0
 34 40  1  0  0  0  0
 35 48  1  0  0  0  0
 36 37  1  0  0  0  0
 36 45  1  6  0  0  0
 37 38  1  0  0  0  0
 37 44  1  1  0  0  0
 38 39  1  0  0  0  0
 38 40  1  6  0  0  0
 43 47  1  0  0  0  0
 46 48  1  0  0  0  0
 48 43  1  1  0  0  0
M  END
>  <CHROM.1>
-161.81911163,-170.30623957,-61.90103945,-61.29754923,159.09484340,168.53836613
-81.85216978,56.26312749,-85.61694299,171.93558559,-69.61120164,-72.50489228
-3.15542537,28.16046155,9.65839830,3.72480980,1.89927395,0.10849977,1.77580623

>  <Name>
ligand

>  <RI>
0

>  <Rbt.Current_Directory>
/home/itssahil/PROJECTS/Mol_Feturizer/New_Systems/rnas/4PDQ

>  <Rbt.Executable>
rbdock ($Id: //depot/dev/client3/rdock/2013.1/src/exe/rbdock.cxx#4 $)

>  <Rbt.Library>
libRbt.so (2013.1, Build901 2013/11/27)

>  <Rbt.Parameter_File>
/export/apps/rDock/src/rDock_2013.1_src/data/scripts/dock_solv.prm

>  <Rbt.Receptor>
prm/pocket_docking_3.prm

>  <SCORE>
-7.87298

>  <SCORE.INTER>
0.241782

>  <SCORE.INTER.CONST>
1

>  <SCORE.INTER.POLAR>
0

>  <SCORE.INTER.ROT>
13

>  <SCORE.INTER.SOLV>
26.2206

>  <SCORE.INTER.VDW>
-20.8457

>  <SCORE.INTER.norm>
0.00493434

>  <SCORE.INTRA>
-8.32851

>  <SCORE.INTRA.DIHEDRAL>
-23.0178

>  <SCORE.INTRA.DIHEDRAL.0>
34.5115

>  <SCORE.INTRA.POLAR>
0

>  <SCORE.INTRA.POLAR.0>
0

>  <SCORE.INTRA.REPUL>
0.0127484

>  <SCORE.INTRA.REPUL.0>
0

>  <SCORE.INTRA.SOLV>
-0.270186

>  <SCORE.INTRA.SOLV.lig_0>
-122.812

>  <SCORE.INTRA.VDW>
3.25175

>  <SCORE.INTRA.VDW.0>
-7.46208

>  <SCORE.INTRA.norm>
-0.16997

>  <SCORE.RESTR>
0.21375

>  <SCORE.RESTR.CAVITY>
0.21375

>  <SCORE.RESTR.norm>
0.00436225

>  <SCORE.SYSTEM>
0

>  <SCORE.SYSTEM.CONST>
0

>  <SCORE.SYSTEM.DIHEDRAL>
0

>  <SCORE.SYSTEM.SOLV>
0

>  <SCORE.SYSTEM.norm>
0

>  <SCORE.heavy>
49

>  <SCORE.norm>
-0.160673

>  <RMSD>
8.970

$$$$
ligand
 OpenBabel11021811513D
libRbt.so/2013.1/901 2013/11/27
 49 52  0  0  0  0  0  0  0  0999 V2000
   31.7922   10.8357    1.7866 C   0  0  2  0  0  0  0  0  0  0  0  0
   30.4452   10.8318    2.1574 O   0  0  0  0  0  0  0  0  0  0  0  0
   31.9189   11.1525    0.2501 C   0  0  2  0  0  0  0  0  0  0  0  0
   31.2872   12.5065   -0.0334 N   0  0  0  0  0  0  0  0  0  0  0  0
   27.4930   10.0858    7.0545 O   0  0  0  0  0  0  0  0  0  0  0  0
   31.2556   10.0340   -0.5870 C   0  0  2  0  0  0  0  0  0  0  0  0
   26.7408   10.2518   11.9554 N   0  0  0  0  0  0  0  0  0  0  0  0
   31.8966    8.6740   -0.2689 C   0  0  2  0  0  0  0  0  0  0  0  0
   31.7898    8.3202    1.2748 C   0  0  2  0  0  0  0  0  0  0  0  0
   32.4088    9.4762    2.0628 O   0  0  0  0  0  0  0  0  0  0  0  0
   32.4895    6.9685    1.5986 C   0  0  0  0  0  0  0  0  0  0  0  0
   33.8780    6.9568    1.3052 N   0  0  0  0  0  0  0  0  0  0  0  0
   30.0771    9.1203    6.1245 C   0  0  2  0  0  0  0  0  0  0  0  0
   29.5765    8.9087    7.5144 N   0  0  0  0  0  0  0  0  0  0  0  0
   30.2829   10.7008    5.9352 C   0  0  0  0  0  0  0  0  0  0  0  0
   30.8363   11.0135    4.4950 C   0  0  2  0  0  0  0  0  0  0  0  0
   31.0100   12.4608    4.3021 N   0  0  0  0  0  0  0  0  0  0  0  0
   29.8559   10.4978    3.4227 C   0  0  2  0  0  0  0  0  0  0  0  0
   29.6273    8.9407    3.5840 C   0  0  2  0  0  0  0  0  0  0  0  0
   28.6879    8.5473    2.5153 O   0  0  0  0  0  0  0  0  0  0  0  0
   28.9995    8.6543    5.0419 C   0  0  1  0  0  0  0  0  0  0  0  0
   28.7987    7.2813    5.1611 O   0  0  0  0  0  0  0  0  0  0  0  0
   27.6568    9.2053    2.1071 C   0  0  1  0  0  0  0  0  0  0  0  0
   27.0931    8.7837    0.7182 C   0  0  2  0  0  0  0  0  0  0  0  0
   27.7132    9.5632   -0.2553 O   0  0  0  0  0  0  0  0  0  0  0  0
   25.6902    9.1821    0.9210 C   0  0  1  0  0  0  0  0  0  0  0  0
   25.2919    8.8294    2.3874 C   0  0  2  0  0  0  0  0  0  0  0  0
   26.5054    9.1695    3.0120 O   0  0  0  0  0  0  0  0  0  0  0  0
   24.7140    7.4410    2.6655 C   0  0  0  0  0  0  0  0  0  0  0  0
   23.5468    7.3316    1.8728 O   0  0  0  0  0  0  0  0  0  0  0  0
   25.6404   11.0542   -0.6652 C   0  0  2  0  0  0  0  0  0  0  0  0
   25.6223   10.6526    0.6393 O   0  0  0  0  0  0  0  0  0  0  0  0
   25.8075   12.5395   -0.7960 C   0  0  1  0  0  0  0  0  0  0  0  0
   21.7108   11.0671   -2.9543 N   0  0  0  0  0  0  0  0  0  0  0  0
   28.1591    7.8025    9.6934 O   0  0  0  0  0  0  0  0  0  0  0  0
   25.7683   12.9380   -2.3224 C   0  0  2  0  0  0  0  0  0  0  0  0
   24.4607   12.4828   -3.0584 C   0  0  1  0  0  0  0  0  0  0  0  0
   24.3271   11.0509   -2.9272 C   0  0  1  0  0  0  0  0  0  0  0  0
   24.3622   10.6412   -1.4670 O   0  0  0  0  0  0  0  0  0  0  0  0
   22.9869   10.5490   -3.6237 C   0  0  0  0  0  0  0  0  0  0  0  0
   24.7493   13.2037   -0.1437 N   0  0  0  0  0  0  0  0  0  0  0  0
   31.3963   10.2660   -1.6973 O   0  0  0  0  0  0  0  0  0  0  0  0
   28.5066   10.0043   10.1308 C   0  0  0  0  0  0  0  0  0  0  0  0
   23.5647   12.9880   -2.5490 O   0  0  0  0  0  0  0  0  0  0  0  0
   26.6453   12.4148   -2.8517 O   0  0  0  0  0  0  0  0  0  0  0  0
   28.2254    9.4706    7.8424 C   0  0  0  0  0  0  0  0  0  0  0  0
   28.0120    9.9302   11.4137 C   0  0  0  0  0  0  0  0  0  0  0  0
   27.8196    9.1500    9.3735 C   0  0  1  0  0  0  0  0  0  0  0  0
   33.2579    8.6920   -0.6210 F   0  0  0  0  0  0  0  0  0  0  0  0
  1  2  1  6  0  0  0
  1 10  1  0  0  0  0
  1  3  1  0  0  0  0
  3  4  1  1  0  0  0
  3  6  1  0  0  0  0
  5 46  2  0  0  0  0
  6 42  1  6  0  0  0
  6  8  1  0  0  0  0
  7 47  1  0  0  0  0
  8  9  1  0  0  0  0
  8 49  1  1  0  0  0
  9 10  1  0  0  0  0
  9 11  1  6  0  0  0
 11 12  1  0  0  0  0
 13 14  1  1  0  0  0
 13 15  1  0  0  0  0
 13 21  1  0  0  0  0
 14 46  1  0  0  0  0
 15 16  1  0  0  0  0
 16 17  1  1  0  0  0
 16 18  1  0  0  0  0
 18  2  1  6  0  0  0
 18 19  1  0  0  0  0
 19 20  1  6  0  0  0
 19 21  1  0  0  0  0
 21 22  1  6  0  0  0
 23 20  1  1  0  0  0
 23 24  1  0  0  0  0
 23 28  1  0  0  0  0
 24 25  1  6  0  0  0
 24 26  1  0  0  0  0
 26 27  1  0  0  0  0
 26 32  1  1  0  0  0
 27 28  1  0  0  0  0
 27 29  1  6  0  0  0
 29 30  1  0  0  0  0
 31 32  1  1  0  0  0
 31 33  1  0  0  0  0
 31 39  1  0  0  0  0
 33 36  1  0  0  0  0
 33 41  1  1  0  0  0
 34 40  1  0  0  0  0
 35 48  1  0  0  0  0
 36 37  1  0  0  0  0
 36 45  1  6  0  0  0
 37 38  1  0  0  0  0
 37 44  1  1  0  0  0
 38 39  1  0  0  0  0
 38 40  1  1  0  0  0
 43 47  1  0  0  0  0
 46 48  1  0  0  0  0
 48 43  1  1  0  0  0
M  END
>  <CHROM.1>
174.97529301,36.20018090,60.99447023,65.01707963,-39.92273230,162.75752213
76.56944889,-59.38483882,-170.06272298,-65.13403441,-64.47983124,-71.32163644
136.07566996,28.17546008,9.95246880,2.28152853,-1.21545046,0.14644421,-1.42495913

>  <Name>
ligand

>  <RI>
0

>  <Rbt.Current_Directory>
/home/itssahil/PROJECTS/Mol_Feturizer/New_Systems/rnas/4PDQ

>  <Rbt.Executable>
rbdock ($Id: //depot/dev/client3/rdock/2013.1/src/exe/rbdock.cxx#4 $)

>  <Rbt.Library>
libRbt.so (2013.1, Build901 2013/11/27)

>  <Rbt.Parameter_File>
/export/apps/rDock/src/rDock_2013.1_src/data/scripts/dock_solv.prm

>  <Rbt.Receptor>
prm/pocket_docking_3.prm

>  <SCORE>
-5.28268

>  <SCORE.INTER>
1.36703

>  <SCORE.INTER.CONST>
1

>  <SCORE.INTER.POLAR>
0

>  <SCORE.INTER.ROT>
13

>  <SCORE.INTER.SOLV>
28.5145

>  <SCORE.INTER.VDW>
-20.8601

>  <SCORE.INTER.norm>
0.0278985

>  <SCORE.INTRA>
-7.74193

>  <SCORE.INTRA.DIHEDRAL>
-25.1977

>  <SCORE.INTRA.DIHEDRAL.0>
34.5115

>  <SCORE.INTRA.POLAR>
0

>  <SCORE.INTRA.POLAR.0>
0

>  <SCORE.INTRA.REPUL>
0.050668

>  <SCORE.INTRA.REPUL.0>
0

>  <SCORE.INTRA.SOLV>
0.746838

>  <SCORE.INTRA.SOLV.lig_0>
-122.812

>  <SCORE.INTRA.VDW>
4.23015

>  <SCORE.INTRA.VDW.0>
-7.46208

>  <SCORE.INTRA.norm>
-0.157999

>  <SCORE.RESTR>
1.09222

>  <SCORE.RESTR.CAVITY>
1.09222

>  <SCORE.RESTR.norm>
0.0222903

>  <SCORE.SYSTEM>
0

>  <SCORE.SYSTEM.CONST>
0

>  <SCORE.SYSTEM.DIHEDRAL>
0

>  <SCORE.SYSTEM.SOLV>
0

>  <SCORE.SYSTEM.norm>
0

>  <SCORE.heavy>
49

>  <SCORE.norm>
-0.10781

>  <RMSD>
9.004

$$$$
ligand
 OpenBabel11021811513D
libRbt.so/2013.1/901 2013/11/27
 49 52  0  0  0  0  0  0  0  0999 V2000
   26.2958   10.5573    0.9928 C   0  0  2  0  0  0  0  0  0  0  0  0
   25.6915   10.8419    2.2199 O   0  0  0  0  0  0  0  0  0  0  0  0
   25.2862   10.8542   -0.1777 C   0  0  2  0  0  0  0  0  0  0  0  0
   24.8700   12.3156   -0.1182 N   0  0  0  0  0  0  0  0  0  0  0  0
   24.8718   13.4988    8.4234 O   0  0  0  0  0  0  0  0  0  0  0  0
   24.0616    9.9144   -0.0842 C   0  0  2  0  0  0  0  0  0  0  0  0
   26.4001   15.4843   11.6275 N   0  0  0  0  0  0  0  0  0  0  0  0
   24.5087    8.4447   -0.1262 C   0  0  2  0  0  0  0  0  0  0  0  0
   25.5309    8.1073    1.0403 C   0  0  2  0  0  0  0  0  0  0  0  0
   26.6959    9.0938    0.9403 O   0  0  0  0  0  0  0  0  0  0  0  0
   26.0219    6.6329    0.9581 C   0  0  0  0  0  0  0  0  0  0  0  0
   26.9579    6.2832    1.9657 N   0  0  0  0  0  0  0  0  0  0  0  0
   26.3775   12.2688    6.2567 C   0  0  2  0  0  0  0  0  0  0  0  0
   26.8454   12.2819    7.6738 N   0  0  0  0  0  0  0  0  0  0  0  0
   25.6877   10.8417    6.0034 C   0  0  0  0  0  0  0  0  0  0  0  0
   25.1402   10.7507    4.5303 C   0  0  2  0  0  0  0  0  0  0  0  0
   24.5235    9.4397    4.2795 N   0  0  0  0  0  0  0  0  0  0  0  0
   26.2891   10.9449    3.5207 C   0  0  2  0  0  0  0  0  0  0  0  0
   26.9944   12.3429    3.7462 C   0  0  2  0  0  0  0  0  0  0  0  0
   28.0653   12.4343    2.7342 O   0  0  0  0  0  0  0  0  0  0  0  0
   27.6031   12.3848    5.2393 C   0  0  1  0  0  0  0  0  0  0  0  0
   28.2255   13.6182    5.4152 O   0  0  0  0  0  0  0  0  0  0  0  0
   29.0343   11.6032    2.5520 C   0  0  1  0  0  0  0  0  0  0  0  0
   30.0503   11.9848    1.4354 C   0  0  2  0  0  0  0  0  0  0  0  0
   29.6159   11.4141    0.2415 O   0  0  0  0  0  0  0  0  0  0  0  0
   31.2341   11.2914    1.9701 C   0  0  1  0  0  0  0  0  0  0  0  0
   31.2374   11.4608    3.5209 C   0  0  2  0  0  0  0  0  0  0  0  0
   29.8528   11.3419    3.7383 O   0  0  0  0  0  0  0  0  0  0  0  0
   31.9481   12.6783    4.1136 C   0  0  0  0  0  0  0  0  0  0  0  0
   31.8176   12.5682    5.5184 O   0  0  0  0  0  0  0  0  0  0  0  0
   31.4832    9.5410    0.2679 C   0  0  2  0  0  0  0  0  0  0  0  0
   31.1154    9.8596    1.5433 O   0  0  0  0  0  0  0  0  0  0  0  0
   31.3768    8.0684    0.0012 C   0  0  1  0  0  0  0  0  0  0  0  0
   35.3697   10.0408   -3.1896 N   0  0  0  0  0  0  0  0  0  0  0  0
   27.0627   11.5574   10.4158 O   0  0  0  0  0  0  0  0  0  0  0  0
   31.8642    7.7664   -1.4690 C   0  0  2  0  0  0  0  0  0  0  0  0
   33.3251    8.2558   -1.7608 C   0  0  1  0  0  0  0  0  0  0  0  0
   33.3999    9.6755   -1.5067 C   0  0  1  0  0  0  0  0  0  0  0  0
   32.9356    9.9928   -0.0979 O   0  0  0  0  0  0  0  0  0  0  0  0
   34.8798   10.2088   -1.7485 C   0  0  0  0  0  0  0  0  0  0  0  0
   32.2050    7.3555    0.8913 N   0  0  0  0  0  0  0  0  0  0  0  0
   23.3646   10.1212   -0.9661 O   0  0  0  0  0  0  0  0  0  0  0  0
   27.5979   13.7531   10.1865 C   0  0  0  0  0  0  0  0  0  0  0  0
   34.0383    7.7120   -1.0445 O   0  0  0  0  0  0  0  0  0  0  0  0
   31.1748    8.3294   -2.1976 O   0  0  0  0  0  0  0  0  0  0  0  0
   25.9586   12.9593    8.6755 C   0  0  0  0  0  0  0  0  0  0  0  0
   27.0775   14.9932   10.4817 C   0  0  0  0  0  0  0  0  0  0  0  0
   26.5925   12.8791   10.1598 C   0  0  1  0  0  0  0  0  0  0  0  0
   25.1384    8.1706   -1.3533 F   0  0  0  0  0  0  0  0  0  0  0  0
  1  2  1  1  0  0  0
  1 10  1  0  0  0  0
  1  3  1  0  0  0  0
  3  4  1  1  0  0  0
  3  6  1  0  0  0  0
  5 46  2  0  0  0  0
  6 42  1  6  0  0  0
  6  8  1  0  0  0  0
  7 47  1  0  0  0  0
  8  9  1  0  0  0  0
  8 49  1  6  0  0  0
  9 10  1  0  0  0  0
  9 11  1  6  0  0  0
 11 12  1  0  0  0  0
 13 14  1  1  0  0  0
 13 15  1  0  0  0  0
 13 21  1  0  0  0  0
 14 46  1  0  0  0  0
 15 16  1  0  0  0  0
 16 17  1  6  0  0  0
 16 18  1  0  0  0  0
 18  2  1  6  0  0  0
 18 19  1  0  0  0  0
 19 20  1  6  0  0  0
 19 21  1  0  0  0  0
 21 22  1  1  0  0  0
 23 20  1  1  0  0  0
 23 24  1  0  0  0  0
 23 28  1  0  0  0  0
 24 25  1  6  0  0  0
 24 26  1  0  0  0  0
 26 27  1  0  0  0  0
 26 32  1  1  0  0  0
 27 28  1  0  0  0  0
 27 29  1  6  0  0  0
 29 30  1  0  0  0  0
 31 32  1  1  0  0  0
 31 33  1  0  0  0  0
 31 39  1  0  0  0  0
 33 36  1  0  0  0  0
 33 41  1  1  0  0  0
 34 40  1  0  0  0  0
 35 48  1  0  0  0  0
 36 37  1  0  0  0  0
 36 45  1  6  0  0  0
 37 38  1  0  0  0  0
 37 44  1  1  0  0  0
 38 39  1  0  0  0  0
 38 40  1  1  0  0  0
 43 47  1  0  0  0  0
 46 48  1  0  0  0  0
 48 43  1  6  0  0  0
M  END
>  <CHROM.1>
-168.06359073,-159.45893070,178.95483577,-98.12068288,-56.46304047,-177.88758006
80.15391676,-178.97050696,177.17770337,62.28682023,62.91030706,-155.82540128
133.66153249,28.44602892,10.70233525,2.77457008,1.10907074,-0.09750611,-2.03108652

>  <Name>
ligand

>  <RI>
0

>  <Rbt.Current_Directory>
/home/itssahil/PROJECTS/Mol_Feturizer/New_Systems/rnas/4PDQ

>  <Rbt.Executable>
rbdock ($Id: //depot/dev/client3/rdock/2013.1/src/exe/rbdock.cxx#4 $)

>  <Rbt.Library>
libRbt.so (2013.1, Build901 2013/11/27)

>  <Rbt.Parameter_File>
/export/apps/rDock/src/rDock_2013.1_src/data/scripts/dock_solv.prm

>  <Rbt.Receptor>
prm/pocket_docking_7.prm

>  <SCORE>
-17.096

>  <SCORE.INTER>
-5.20959

>  <SCORE.INTER.CONST>
1

>  <SCORE.INTER.POLAR>
0

>  <SCORE.INTER.ROT>
13

>  <SCORE.INTER.SOLV>
22.2598

>  <SCORE.INTER.VDW>
-23.1597

>  <SCORE.INTER.norm>
-0.106318

>  <SCORE.INTRA>
-11.8864

>  <SCORE.INTRA.DIHEDRAL>
-26.2026

>  <SCORE.INTRA.DIHEDRAL.0>
34.5115

>  <SCORE.INTRA.POLAR>
0

>  <SCORE.INTRA.POLAR.0>
0

>  <SCORE.INTRA.REPUL>
0

>  <SCORE.INTRA.REPUL.0>
0

>  <SCORE.INTRA.SOLV>
-2.24782

>  <SCORE.INTRA.SOLV.lig_0>
-122.812

>  <SCORE.INTRA.VDW>
2.33877

>  <SCORE.INTRA.VDW.0>
-7.46208

>  <SCORE.INTRA.norm>
-0.24258

>  <SCORE.RESTR>
0

>  <SCORE.RESTR.CAVITY>
0

>  <SCORE.RESTR.norm>
0

>  <SCORE.SYSTEM>
0

>  <SCORE.SYSTEM.CONST>
0

>  <SCORE.SYSTEM.DIHEDRAL>
0

>  <SCORE.SYSTEM.SOLV>
0

>  <SCORE.SYSTEM.norm>
0

>  <SCORE.heavy>
49

>  <SCORE.norm>
-0.348898

>  <RMSD>
9.010

$$$$
ligand
 OpenBabel11021811513D
libRbt.so/2013.1/901 2013/11/27
 49 52  0  0  0  0  0  0  0  0999 V2000
   31.8797   10.7345    2.4542 C   0  0  2  0  0  0  0  0  0  0  0  0
   31.0220    9.8186    3.0684 O   0  0  0  0  0  0  0  0  0  0  0  0
   31.0440   11.7373    1.5748 C   0  0  2  0  0  0  0  0  0  0  0  0
   30.0420   12.4612    2.4604 N   0  0  0  0  0  0  0  0  0  0  0  0
   26.7204   11.5255    6.4856 O   0  0  0  0  0  0  0  0  0  0  0  0
   30.3383   10.9844    0.4229 C   0  0  2  0  0  0  0  0  0  0  0  0
   23.3501    8.7826    8.4323 N   0  0  0  0  0  0  0  0  0  0  0  0
   31.3685   10.2453   -0.4455 C   0  0  2  0  0  0  0  0  0  0  0  0
   32.2334    9.2245    0.4086 C   0  0  2  0  0  0  0  0  0  0  0  0
   32.8672   10.0017    1.5638 O   0  0  0  0  0  0  0  0  0  0  0  0
   33.3111    8.5208   -0.4660 C   0  0  0  0  0  0  0  0  0  0  0  0
   34.0873    7.5648    0.2393 N   0  0  0  0  0  0  0  0  0  0  0  0
   28.8739    9.5970    6.8287 C   0  0  2  0  0  0  0  0  0  0  0  0
   27.9228    9.9639    7.9186 N   0  0  0  0  0  0  0  0  0  0  0  0
   29.6503   10.9387    6.4119 C   0  0  0  0  0  0  0  0  0  0  0  0
   30.6983   10.6361    5.2768 C   0  0  2  0  0  0  0  0  0  0  0  0
   31.4023   11.8618    4.8720 N   0  0  0  0  0  0  0  0  0  0  0  0
   29.9897   10.0545    4.0372 C   0  0  2  0  0  0  0  0  0  0  0  0
   29.2098    8.7309    4.4150 C   0  0  2  0  0  0  0  0  0  0  0  0
   28.5779    8.2529    3.1694 O   0  0  0  0  0  0  0  0  0  0  0  0
   28.0992    9.0808    5.5310 C   0  0  1  0  0  0  0  0  0  0  0  0
   27.4193    7.9063    5.8439 O   0  0  0  0  0  0  0  0  0  0  0  0
   28.1433    8.9744    2.1930 C   0  0  1  0  0  0  0  0  0  0  0  0
   27.8374    8.2092    0.8718 C   0  0  2  0  0  0  0  0  0  0  0  0
   28.9894    8.2193    0.0891 O   0  0  0  0  0  0  0  0  0  0  0  0
   26.8052    9.1094    0.3312 C   0  0  1  0  0  0  0  0  0  0  0  0
   25.9138    9.5938    1.5161 C   0  0  2  0  0  0  0  0  0  0  0  0
   26.9253    9.7346    2.4833 O   0  0  0  0  0  0  0  0  0  0  0  0
   24.6872    8.7588    1.8865 C   0  0  0  0  0  0  0  0  0  0  0  0
   23.8416    8.7719    0.7519 O   0  0  0  0  0  0  0  0  0  0  0  0
   26.8526   10.9696   -1.2690 C   0  0  2  0  0  0  0  0  0  0  0  0
   27.5333   10.2322   -0.3437 O   0  0  0  0  0  0  0  0  0  0  0  0
   26.9823   12.4438   -1.0220 C   0  0  1  0  0  0  0  0  0  0  0  0
   22.7950    9.4721   -2.7273 N   0  0  0  0  0  0  0  0  0  0  0  0
   26.0108   12.6270    9.2475 O   0  0  0  0  0  0  0  0  0  0  0  0
   26.1324   13.2307   -2.0937 C   0  0  2  0  0  0  0  0  0  0  0  0
   24.6176   12.8262   -2.1161 C   0  0  1  0  0  0  0  0  0  0  0  0
   24.5183   11.4071   -2.3648 C   0  0  1  0  0  0  0  0  0  0  0  0
   25.3282   10.6269   -1.3468 O   0  0  0  0  0  0  0  0  0  0  0  0
   22.9959   10.9432   -2.3525 C   0  0  0  0  0  0  0  0  0  0  0  0
   26.4807   12.7652    0.2553 N   0  0  0  0  0  0  0  0  0  0  0  0
   29.7725   11.7381   -0.2237 O   0  0  0  0  0  0  0  0  0  0  0  0
   24.6731   10.9636    8.4707 C   0  0  0  0  0  0  0  0  0  0  0  0
   24.1670   13.0554   -1.0856 O   0  0  0  0  0  0  0  0  0  0  0  0
   26.5555   12.9872   -3.1353 O   0  0  0  0  0  0  0  0  0  0  0  0
   26.8685   10.9775    7.5872 C   0  0  0  0  0  0  0  0  0  0  0  0
   24.4582    9.6244    8.7084 C   0  0  0  0  0  0  0  0  0  0  0  0
   25.9129   11.2582    8.8597 C   0  0  1  0  0  0  0  0  0  0  0  0
   32.2444   11.1701   -1.0412 F   0  0  0  0  0  0  0  0  0  0  0  0
  1  2  1  6  0  0  0
  1 10  1  0  0  0  0
  1  3  1  0  0  0  0
  3  4  1  1  0  0  0
  3  6  1  0  0  0  0
  5 46  2  0  0  0  0
  6 42  1  6  0  0  0
  6  8  1  0  0  0  0
  7 47  1  0  0  0  0
  8  9  1  0  0  0  0
  8 49  1  1  0  0  0
  9 10  1  0  0  0  0
  9 11  1  6  0  0  0
 11 12  1  0  0  0  0
 13 14  1  1  0  0  0
 13 15  1  0  0  0  0
 13 21  1  0  0  0  0
 14 46  1  0  0  0  0
 15 16  1  0  0  0  0
 16 17  1  6  0  0  0
 16 18  1  0  0  0  0
 18  2  1  6  0  0  0
 18 19  1  0  0  0  0
 19 20  1  6  0  0  0
 19 21  1  0  0  0  0
 21 22  1  1  0  0  0
 23 20  1  1  0  0  0
 23 24  1  0  0  0  0
 23 28  1  0  0  0  0
 24 25  1  6  0  0  0
 24 26  1  0  0  0  0
 26 27  1  0  0  0  0
 26 32  1  1  0  0  0
 27 28  1  0  0  0  0
 27 29  1  1  0  0  0
 29 30  1  0  0  0  0
 31 32  1  1  0  0  0
 31 33  1  0  0  0  0
 31 39  1  0  0  0  0
 33 36  1  0  0  0  0
 33 41  1  1  0  0  0
 34 40  1  0  0  0  0
 35 48  1  0  0  0  0
 36 37  1  0  0  0  0
 36 45  1  6  0  0  0
 37 38  1  0  0  0  0
 37 44  1  1  0  0  0
 38 39  1  0  0  0  0
 38 40  1  1  0  0  0
 43 47  1  0  0  0  0
 46 48  1  0  0  0  0
 48 43  1  6  0  0  0
M  END
>  <CHROM.1>
-63.83309958,-62.13140277,-178.13950465,60.89333714,-31.77177373,165.96824665
159.95764756,-62.01275324,130.14886105,175.04912920,-176.76080508,-152.34336340
-62.44662034,27.92759591,10.39625869,2.25879101,-1.52325825,-0.12220151,1.65695360

>  <Name>
ligand

>  <RI>
0

>  <Rbt.Current_Directory>
/home/itssahil/PROJECTS/Mol_Feturizer/New_Systems/rnas/4PDQ

>  <Rbt.Executable>
rbdock ($Id: //depot/dev/client3/rdock/2013.1/src/exe/rbdock.cxx#4 $)

>  <Rbt.Library>
libRbt.so (2013.1, Build901 2013/11/27)

>  <Rbt.Parameter_File>
/export/apps/rDock/src/rDock_2013.1_src/data/scripts/dock_solv.prm

>  <Rbt.Receptor>
prm/pocket_docking_3.prm

>  <SCORE>
-4.52875

>  <SCORE.INTER>
0.264576

>  <SCORE.INTER.CONST>
1

>  <SCORE.INTER.POLAR>
0

>  <SCORE.INTER.ROT>
13

>  <SCORE.INTER.SOLV>
24.8646

>  <SCORE.INTER.VDW>
-20.3785

>  <SCORE.INTER.norm>
0.00539951

>  <SCORE.INTRA>
-4.93054

>  <SCORE.INTRA.DIHEDRAL>
-16.8207

>  <SCORE.INTRA.DIHEDRAL.0>
34.5115

>  <SCORE.INTRA.POLAR>
0

>  <SCORE.INTRA.POLAR.0>
0

>  <SCORE.INTRA.REPUL>
0.00355101

>  <SCORE.INTRA.REPUL.0>
0

>  <SCORE.INTRA.SOLV>
4.87666

>  <SCORE.INTRA.SOLV.lig_0>
-122.812

>  <SCORE.INTRA.VDW>
1.02373

>  <SCORE.INTRA.VDW.0>
-7.46208

>  <SCORE.INTRA.norm>
-0.100623

>  <SCORE.RESTR>
0.137214

>  <SCORE.RESTR.CAVITY>
0.137214

>  <SCORE.RESTR.norm>
0.00280029

>  <SCORE.SYSTEM>
0

>  <SCORE.SYSTEM.CONST>
0

>  <SCORE.SYSTEM.DIHEDRAL>
0

>  <SCORE.SYSTEM.SOLV>
0

>  <SCORE.SYSTEM.norm>
0

>  <SCORE.heavy>
49

>  <SCORE.norm>
-0.0924234

>  <RMSD>
9.049

$$$$
ligand
 OpenBabel11021811513D
libRbt.so/2013.1/901 2013/11/27
 49 52  0  0  0  0  0  0  0  0999 V2000
   27.7260    8.1420    0.7323 C   0  0  2  0  0  0  0  0  0  0  0  0
   27.4101    7.6437    1.9988 O   0  0  0  0  0  0  0  0  0  0  0  0
   26.7226    7.5611   -0.3321 C   0  0  2  0  0  0  0  0  0  0  0  0
   25.3049    7.9533    0.0532 N   0  0  0  0  0  0  0  0  0  0  0  0
   26.1767    9.1087    8.5227 O   0  0  0  0  0  0  0  0  0  0  0  0
   26.8753    6.0255   -0.4345 C   0  0  2  0  0  0  0  0  0  0  0  0
   27.0108    7.4811   12.1946 N   0  0  0  0  0  0  0  0  0  0  0  0
   28.3195    5.6534   -0.8051 C   0  0  2  0  0  0  0  0  0  0  0  0
   29.3623    6.2247    0.2466 C   0  0  2  0  0  0  0  0  0  0  0  0
   29.1384    7.7342    0.3536 O   0  0  0  0  0  0  0  0  0  0  0  0
   30.8257    5.8917   -0.1647 C   0  0  0  0  0  0  0  0  0  0  0  0
   31.0751    4.5036   -0.3232 N   0  0  0  0  0  0  0  0  0  0  0  0
   27.8188    8.9038    6.1277 C   0  0  2  0  0  0  0  0  0  0  0  0
   28.3878    9.0258    7.5019 N   0  0  0  0  0  0  0  0  0  0  0  0
   27.8449    7.3451    5.7454 C   0  0  0  0  0  0  0  0  0  0  0  0
   27.2355    7.1216    4.3112 C   0  0  2  0  0  0  0  0  0  0  0  0
   27.2724    5.6991    3.9410 N   0  0  0  0  0  0  0  0  0  0  0  0
   28.0379    7.9149    3.2605 C   0  0  2  0  0  0  0  0  0  0  0  0
   28.0357    9.4577    3.6107 C   0  0  2  0  0  0  0  0  0  0  0  0
   28.8169   10.1241    2.5500 O   0  0  0  0  0  0  0  0  0  0  0  0
   28.7238    9.6655    5.0546 C   0  0  1  0  0  0  0  0  0  0  0  0
   28.7193   11.0285    5.3407 O   0  0  0  0  0  0  0  0  0  0  0  0
   30.0905   10.0516    2.3621 C   0  0  1  0  0  0  0  0  0  0  0  0
   30.6717   11.0227    1.2926 C   0  0  2  0  0  0  0  0  0  0  0  0
   30.6657   10.3670    0.0638 O   0  0  0  0  0  0  0  0  0  0  0  0
   32.0353   11.1526    1.8326 C   0  0  1  0  0  0  0  0  0  0  0  0
   31.9385   11.2111    3.3884 C   0  0  2  0  0  0  0  0  0  0  0  0
   30.9036   10.2740    3.5601 O   0  0  0  0  0  0  0  0  0  0  0  0
   31.7757   12.5794    4.0518 C   0  0  0  0  0  0  0  0  0  0  0  0
   31.7903   12.3473    5.4477 O   0  0  0  0  0  0  0  0  0  0  0  0
   34.1318    9.8919    1.6362 C   0  0  2  0  0  0  0  0  0  0  0  0
   32.8002    9.9602    1.3435 O   0  0  0  0  0  0  0  0  0  0  0  0
   34.9052   11.0155    1.0114 C   0  0  1  0  0  0  0  0  0  0  0  0
   36.5827    6.6954   -0.4470 N   0  0  0  0  0  0  0  0  0  0  0  0
   29.2691   10.1491    9.9441 O   0  0  0  0  0  0  0  0  0  0  0  0
   36.4378   10.8459    1.3471 C   0  0  2  0  0  0  0  0  0  0  0  0
   37.0340    9.4700    0.8885 C   0  0  1  0  0  0  0  0  0  0  0  0
   36.2806    8.4060    1.5095 C   0  0  1  0  0  0  0  0  0  0  0  0
   34.8018    8.5466    1.2020 O   0  0  0  0  0  0  0  0  0  0  0  0
   36.8246    6.9870    1.0367 C   0  0  0  0  0  0  0  0  0  0  0  0
   34.7584   10.9820   -0.3899 N   0  0  0  0  0  0  0  0  0  0  0  0
   26.1667    5.6334   -1.2411 O   0  0  0  0  0  0  0  0  0  0  0  0
   27.2776    9.6816   10.9317 C   0  0  0  0  0  0  0  0  0  0  0  0
   36.9215    9.3892   -0.2510 O   0  0  0  0  0  0  0  0  0  0  0  0
   36.5619   10.8961    2.4895 O   0  0  0  0  0  0  0  0  0  0  0  0
   27.4107    9.1264    8.6350 C   0  0  0  0  0  0  0  0  0  0  0  0
   26.5897    8.5945   11.4227 C   0  0  0  0  0  0  0  0  0  0  0  0
   28.1766    9.2391   10.0535 C   0  0  1  0  0  0  0  0  0  0  0  0
   28.6401    6.1787   -2.0694 F   0  0  0  0  0  0  0  0  0  0  0  0
  1  2  1  1  0  0  0
  1 10  1  0  0  0  0
  1  3  1  0  0  0  0
  3  4  1  1  0  0  0
  3  6  1  0  0  0  0
  5 46  2  0  0  0  0
  6 42  1  6  0  0  0
  6  8  1  0  0  0  0
  7 47  1  0  0  0  0
  8  9  1  0  0  0  0
  8 49  1  6  0  0  0
  9 10  1  0  0  0  0
  9 11  1  6  0  0  0
 11 12  1  0  0  0  0
 13 14  1  1  0  0  0
 13 15  1  0  0  0  0
 13 21  1  0  0  0  0
 14 46  1  0  0  0  0
 15 16  1  0  0  0  0
 16 17  1  6  0  0  0
 16 18  1  0  0  0  0
 18  2  1  6  0  0  0
 18 19  1  0  0  0  0
 19 20  1  6  0  0  0
 19 21  1  0  0  0  0
 21 22  1  1  0  0  0
 23 20  1  1  0  0  0
 23 24  1  0  0  0  0
 23 28  1  0  0  0  0
 24 25  1  6  0  0  0
 24 26  1  0  0  0  0
 26 27  1  0  0  0  0
 26 32  1  1  0  0  0
 27 28  1  0  0  0  0
 27 29  1  6  0  0  0
 29 30  1  0  0  0  0
 31 32  1  6  0  0  0
 31 33  1  0  0  0  0
 31 39  1  0  0  0  0
 33 36  1  0  0  0  0
 33 41  1  6  0  0  0
 34 40  1  0  0  0  0
 35 48  1  0  0  0  0
 36 37  1  0  0  0  0
 36 45  1  1  0  0  0
 37 38  1  0  0  0  0
 37 44  1  6  0  0  0
 38 39  1  0  0  0  0
 38 40  1  6  0  0  0
 43 47  1  0  0  0  0
 46 48  1  0  0  0  0
 48 43  1  1  0  0  0
M  END
>  <CHROM.1>
-178.99971205,178.21368619,-57.42957525,-98.31402697,-70.38562604,-171.41022792
175.64689057,-176.81963585,-62.93004554,-66.94114879,64.24286741,-154.74098488
-137.40463542,30.37882384,8.79867512,3.03542153,0.79580597,-0.35648482,-1.90349651

>  <Name>
ligand

>  <RI>
0

>  <Rbt.Current_Directory>
/home/itssahil/PROJECTS/Mol_Feturizer/New_Systems/rnas/4PDQ

>  <Rbt.Executable>
rbdock ($Id: //depot/dev/client3/rdock/2013.1/src/exe/rbdock.cxx#4 $)

>  <Rbt.Library>
libRbt.so (2013.1, Build901 2013/11/27)

>  <Rbt.Parameter_File>
/export/apps/rDock/src/rDock_2013.1_src/data/scripts/dock_solv.prm

>  <Rbt.Receptor>
prm/pocket_docking_6.prm

>  <SCORE>
-10.1183

>  <SCORE.INTER>
1.65063

>  <SCORE.INTER.CONST>
1

>  <SCORE.INTER.POLAR>
0

>  <SCORE.INTER.ROT>
13

>  <SCORE.INTER.SOLV>
15.5155

>  <SCORE.INTER.VDW>
-16.3381

>  <SCORE.INTER.norm>
0.0336864

>  <SCORE.INTRA>
-11.769

>  <SCORE.INTRA.DIHEDRAL>
-29.1952

>  <SCORE.INTRA.DIHEDRAL.0>
34.5115

>  <SCORE.INTRA.POLAR>
0

>  <SCORE.INTRA.POLAR.0>
0

>  <SCORE.INTRA.REPUL>
0.00181423

>  <SCORE.INTRA.REPUL.0>
0

>  <SCORE.INTRA.SOLV>
-0.820369

>  <SCORE.INTRA.SOLV.lig_0>
-122.812

>  <SCORE.INTRA.VDW>
3.22976

>  <SCORE.INTRA.VDW.0>
-7.46208

>  <SCORE.INTRA.norm>
-0.240183

>  <SCORE.RESTR>
0

>  <SCORE.RESTR.CAVITY>
0

>  <SCORE.RESTR.norm>
0

>  <SCORE.SYSTEM>
0

>  <SCORE.SYSTEM.CONST>
0

>  <SCORE.SYSTEM.DIHEDRAL>
0

>  <SCORE.SYSTEM.SOLV>
0

>  <SCORE.SYSTEM.norm>
0

>  <SCORE.heavy>
49

>  <SCORE.norm>
-0.206497

>  <RMSD>
9.127

$$$$
ligand
 OpenBabel11021811513D
libRbt.so/2013.1/901 2013/11/27
 49 52  0  0  0  0  0  0  0  0999 V2000
   25.5513    8.9456    3.6316 C   0  0  2  0  0  0  0  0  0  0  0  0
   26.2347    9.9986    4.2448 O   0  0  0  0  0  0  0  0  0  0  0  0
   26.4244    7.6376    3.6952 C   0  0  2  0  0  0  0  0  0  0  0  0
   26.7170    7.3038    5.1496 N   0  0  0  0  0  0  0  0  0  0  0  0
   26.3857   10.6401    9.9669 O   0  0  0  0  0  0  0  0  0  0  0  0
   27.7288    7.8208    2.8847 C   0  0  2  0  0  0  0  0  0  0  0  0
   26.6717   15.3257   13.4726 N   0  0  0  0  0  0  0  0  0  0  0  0
   27.4078    8.1766    1.4246 C   0  0  2  0  0  0  0  0  0  0  0  0
   26.5252    9.4918    1.3202 C   0  0  2  0  0  0  0  0  0  0  0  0
   25.2754    9.2849    2.1778 O   0  0  0  0  0  0  0  0  0  0  0  0
   26.1576    9.8146   -0.1571 C   0  0  0  0  0  0  0  0  0  0  0  0
   25.3863   10.9959   -0.3110 N   0  0  0  0  0  0  0  0  0  0  0  0
   25.7638   12.4613    7.7827 C   0  0  2  0  0  0  0  0  0  0  0  0
   25.6061   12.8251    9.2214 N   0  0  0  0  0  0  0  0  0  0  0  0
   24.7480   11.2535    7.4899 C   0  0  0  0  0  0  0  0  0  0  0  0
   24.8316   10.8203    5.9787 C   0  0  2  0  0  0  0  0  0  0  0  0
   23.9198    9.7004    5.7024 N   0  0  0  0  0  0  0  0  0  0  0  0
   26.2652   10.3730    5.6300 C   0  0  2  0  0  0  0  0  0  0  0  0
   27.2940   11.5413    5.9117 C   0  0  2  0  0  0  0  0  0  0  0  0
   28.6245   11.0194    5.5418 O   0  0  0  0  0  0  0  0  0  0  0  0
   27.2355   11.9210    7.4782 C   0  0  1  0  0  0  0  0  0  0  0  0
   28.1524   12.9441    7.7070 O   0  0  0  0  0  0  0  0  0  0  0  0
   29.0765   10.8201    4.3507 C   0  0  1  0  0  0  0  0  0  0  0  0
   28.9013   12.0044    3.3550 C   0  0  2  0  0  0  0  0  0  0  0  0
   27.6864   11.8382    2.6943 O   0  0  0  0  0  0  0  0  0  0  0  0
   30.0439   11.7186    2.4714 C   0  0  1  0  0  0  0  0  0  0  0  0
   31.2336   11.2342    3.3565 C   0  0  2  0  0  0  0  0  0  0  0  0
   30.4976   10.4717    4.2814 O   0  0  0  0  0  0  0  0  0  0  0  0
   32.1982   12.2846    3.9089 C   0  0  0  0  0  0  0  0  0  0  0  0
   31.4555   13.0579    4.8324 O   0  0  0  0  0  0  0  0  0  0  0  0
   30.5122   10.0970    0.6896 C   0  0  2  0  0  0  0  0  0  0  0  0
   29.5793   10.6742    1.5021 O   0  0  0  0  0  0  0  0  0  0  0  0
   31.0681   11.0682   -0.3099 C   0  0  1  0  0  0  0  0  0  0  0  0
   29.7850    5.8440   -0.7455 N   0  0  0  0  0  0  0  0  0  0  0  0
   25.9998   11.2743   12.6720 O   0  0  0  0  0  0  0  0  0  0  0  0
   32.0983   10.3240   -1.2453 C   0  0  2  0  0  0  0  0  0  0  0  0
   31.4915    9.0840   -1.9889 C   0  0  1  0  0  0  0  0  0  0  0  0
   30.9726    8.1606   -1.0073 C   0  0  1  0  0  0  0  0  0  0  0  0
   29.9786    8.8525   -0.0938 O   0  0  0  0  0  0  0  0  0  0  0  0
   30.3058    6.9037   -1.7205 C   0  0  0  0  0  0  0  0  0  0  0  0
   30.0311   11.5756   -1.1183 N   0  0  0  0  0  0  0  0  0  0  0  0
   28.3249    6.8460    2.9123 O   0  0  0  0  0  0  0  0  0  0  0  0
   26.6244   13.3173   11.9001 C   0  0  0  0  0  0  0  0  0  0  0  0
   30.6271    9.4471   -2.6512 O   0  0  0  0  0  0  0  0  0  0  0  0
   32.9570    9.9292   -0.5896 O   0  0  0  0  0  0  0  0  0  0  0  0
   25.9646   11.7754   10.2305 C   0  0  0  0  0  0  0  0  0  0  0  0
   26.1760   14.1113   12.9318 C   0  0  0  0  0  0  0  0  0  0  0  0
   25.7538   12.3221   11.7365 C   0  0  1  0  0  0  0  0  0  0  0  0
   26.6983    7.1238    0.8199 F   0  0  0  0  0  0  0  0  0  0  0  0
  1  2  1  6  0  0  0
  1 10  1  0  0  0  0
  1  3  1  0  0  0  0
  3  4  1  1  0  0  0
  3  6  1  0  0  0  0
  5 46  2  0  0  0  0
  6 42  1  6  0  0  0
  6  8  1  0  0  0  0
  7 47  1  0  0  0  0
  8  9  1  0  0  0  0
  8 49  1  1  0  0  0
  9 10  1  0  0  0  0
  9 11  1  6  0  0  0
 11 12  1  0  0  0  0
 13 14  1  1  0  0  0
 13 15  1  0  0  0  0
 13 21  1  0  0  0  0
 14 46  1  0  0  0  0
 15 16  1  0  0  0  0
 16 17  1  1  0  0  0
 16 18  1  0  0  0  0
 18  2  1  6  0  0  0
 18 19  1  0  0  0  0
 19 20  1  1  0  0  0
 19 21  1  0  0  0  0
 21 22  1  6  0  0  0
 23 20  1  1  0  0  0
 23 24  1  0  0  0  0
 23 28  1  0  0  0  0
 24 25  1  6  0  0  0
 24 26  1  0  0  0  0
 26 27  1  0  0  0  0
 26 32  1  6  0  0  0
 27 28  1  0  0  0  0
 27 29  1  1  0  0  0
 29 30  1  0  0  0  0
 31 32  1  6  0  0  0
 31 33  1  0  0  0  0
 31 39  1  0  0  0  0
 33 36  1  0  0  0  0
 33 41  1  6  0  0  0
 34 40  1  0  0  0  0
 35 48  1  0  0  0  0
 36 37  1  0  0  0  0
 36 45  1  1  0  0  0
 37 38  1  0  0  0  0
 37 44  1  6  0  0  0
 38 39  1  0  0  0  0
 38 40  1  6  0  0  0
 43 47  1  0  0  0  0
 46 48  1  0  0  0  0
 48 43  1  1  0  0  0
M  END
>  <CHROM.1>
-86.33371727,-65.47816582,-178.98301015,63.14574665,73.36476363,49.08908567
-170.96082601,66.89218544,-67.68695755,177.41620555,-176.27025733,-82.12156674
-5.45356836,28.07483738,10.43484545,4.03825257,1.93952965,0.50802752,1.08318056

>  <Name>
ligand

>  <RI>
0

>  <Rbt.Current_Directory>
/home/itssahil/PROJECTS/Mol_Feturizer/New_Systems/rnas/4PDQ

>  <Rbt.Executable>
rbdock ($Id: //depot/dev/client3/rdock/2013.1/src/exe/rbdock.cxx#4 $)

>  <Rbt.Library>
libRbt.so (2013.1, Build901 2013/11/27)

>  <Rbt.Parameter_File>
/export/apps/rDock/src/rDock_2013.1_src/data/scripts/dock_solv.prm

>  <Rbt.Receptor>
prm/pocket_docking_6.prm

>  <SCORE>
-9.74378

>  <SCORE.INTER>
2.5133

>  <SCORE.INTER.CONST>
1

>  <SCORE.INTER.POLAR>
0

>  <SCORE.INTER.ROT>
13

>  <SCORE.INTER.SOLV>
24.0916

>  <SCORE.INTER.VDW>
-18.6217

>  <SCORE.INTER.norm>
0.0512918

>  <SCORE.INTRA>
-12.2636

>  <SCORE.INTRA.DIHEDRAL>
-26.6315

>  <SCORE.INTRA.DIHEDRAL.0>
34.5115

>  <SCORE.INTRA.POLAR>
0

>  <SCORE.INTRA.POLAR.0>
0

>  <SCORE.INTRA.REPUL>
0.0127367

>  <SCORE.INTRA.REPUL.0>
0

>  <SCORE.INTRA.SOLV>
1.8734

>  <SCORE.INTRA.SOLV.lig_0>
-122.812

>  <SCORE.INTRA.VDW>
0.0517693

>  <SCORE.INTRA.VDW.0>
-7.46208

>  <SCORE.INTRA.norm>
-0.250277

>  <SCORE.RESTR>
0.00651247

>  <SCORE.RESTR.CAVITY>
0.00651247

>  <SCORE.RESTR.norm>
0.000132908

>  <SCORE.SYSTEM>
0

>  <SCORE.SYSTEM.CONST>
0

>  <SCORE.SYSTEM.DIHEDRAL>
0

>  <SCORE.SYSTEM.SOLV>
0

>  <SCORE.SYSTEM.norm>
0

>  <SCORE.heavy>
49

>  <SCORE.norm>
-0.198853

>  <RMSD>
9.130

$$$$
ligand
 OpenBabel11021811513D
libRbt.so/2013.1/901 2013/11/27
 49 52  0  0  0  0  0  0  0  0999 V2000
   26.1441   10.3153    1.2877 C   0  0  2  0  0  0  0  0  0  0  0  0
   25.4551   10.5561    2.4790 O   0  0  0  0  0  0  0  0  0  0  0  0
   25.2338   10.6962    0.0616 C   0  0  2  0  0  0  0  0  0  0  0  0
   24.8485   12.1637    0.1637 N   0  0  0  0  0  0  0  0  0  0  0  0
   23.7349   11.5338    8.8806 O   0  0  0  0  0  0  0  0  0  0  0  0
   23.9839    9.7865    0.0155 C   0  0  2  0  0  0  0  0  0  0  0  0
   26.5607   13.0682   13.4239 N   0  0  0  0  0  0  0  0  0  0  0  0
   24.3984    8.3090   -0.0674 C   0  0  2  0  0  0  0  0  0  0  0  0
   25.3207    7.8876    1.1538 C   0  0  2  0  0  0  0  0  0  0  0  0
   26.5128    8.8457    1.1912 O   0  0  0  0  0  0  0  0  0  0  0  0
   25.7819    6.4062    1.0340 C   0  0  0  0  0  0  0  0  0  0  0  0
   26.5162    5.9416    2.1560 N   0  0  0  0  0  0  0  0  0  0  0  0
   25.6936   11.3539    6.7345 C   0  0  2  0  0  0  0  0  0  0  0  0
   26.0380   11.1665    8.1744 N   0  0  0  0  0  0  0  0  0  0  0  0
   25.1318    9.9487    6.1994 C   0  0  0  0  0  0  0  0  0  0  0  0
   24.7186   10.0639    4.6848 C   0  0  2  0  0  0  0  0  0  0  0  0
   24.2209    8.7768    4.1770 N   0  0  0  0  0  0  0  0  0  0  0  0
   25.9318   10.4832    3.8308 C   0  0  2  0  0  0  0  0  0  0  0  0
   26.5134   11.8652    4.3355 C   0  0  2  0  0  0  0  0  0  0  0  0
   27.6566   12.1792    3.4558 O   0  0  0  0  0  0  0  0  0  0  0  0
   26.9892   11.7020    5.8680 C   0  0  1  0  0  0  0  0  0  0  0  0
   27.5044   12.9249    6.2906 O   0  0  0  0  0  0  0  0  0  0  0  0
   28.6179   11.3881    3.1199 C   0  0  1  0  0  0  0  0  0  0  0  0
   29.7235   12.0133    2.2191 C   0  0  2  0  0  0  0  0  0  0  0  0
   29.3680   11.8037    0.8889 O   0  0  0  0  0  0  0  0  0  0  0  0
   30.8478   11.1527    2.6232 C   0  0  1  0  0  0  0  0  0  0  0  0
   30.7378   10.8980    4.1582 C   0  0  2  0  0  0  0  0  0  0  0  0
   29.3385   10.7830    4.2425 O   0  0  0  0  0  0  0  0  0  0  0  0
   31.4286   11.8802    5.1053 C   0  0  0  0  0  0  0  0  0  0  0  0
   30.6982   13.0896    5.0238 O   0  0  0  0  0  0  0  0  0  0  0  0
   31.1258    9.9343    0.5109 C   0  0  2  0  0  0  0  0  0  0  0  0
   30.7299    9.8949    1.8167 O   0  0  0  0  0  0  0  0  0  0  0  0
   30.8687    8.6361   -0.1961 C   0  0  1  0  0  0  0  0  0  0  0  0
   35.2505   10.8526   -2.5677 N   0  0  0  0  0  0  0  0  0  0  0  0
   26.5026   10.0976   10.6690 O   0  0  0  0  0  0  0  0  0  0  0  0
   31.3953    8.7354   -1.6803 C   0  0  2  0  0  0  0  0  0  0  0  0
   32.9151    9.1066   -1.7855 C   0  0  1  0  0  0  0  0  0  0  0  0
   33.1356   10.3624   -1.1073 C   0  0  1  0  0  0  0  0  0  0  0  0
   32.6369   10.2933    0.3236 O   0  0  0  0  0  0  0  0  0  0  0  0
   34.6767   10.7576   -1.1511 C   0  0  0  0  0  0  0  0  0  0  0  0
   31.5638    7.5912    0.4453 N   0  0  0  0  0  0  0  0  0  0  0  0
   23.3610   10.0549   -0.9045 O   0  0  0  0  0  0  0  0  0  0  0  0
   25.8735   12.2348   11.1127 C   0  0  0  0  0  0  0  0  0  0  0  0
   33.5243    8.2882   -1.2595 O   0  0  0  0  0  0  0  0  0  0  0  0
   30.8125    9.5728   -2.2118 O   0  0  0  0  0  0  0  0  0  0  0  0
   24.9175   11.2942    9.1629 C   0  0  0  0  0  0  0  0  0  0  0  0
   26.0848   12.1325   12.4695 C   0  0  0  0  0  0  0  0  0  0  0  0
   25.4441   11.0531   10.6715 C   0  0  1  0  0  0  0  0  0  0  0  0
   25.1130    8.0780   -1.2562 F   0  0  0  0  0  0  0  0  0  0  0  0
  1  2  1  1  0  0  0
  1 10  1  0  0  0  0
  1  3  1  0  0  0  0
  3  4  1  1  0  0  0
  3  6  1  0  0  0  0
  5 46  2  0  0  0  0
  6 42  1  6  0  0  0
  6  8  1  0  0  0  0
  7 47  1  0  0  0  0
  8  9  1  0  0  0  0
  8 49  1  6  0  0  0
  9 10  1  0  0  0  0
  9 11  1  6  0  0  0
 11 12  1  0  0  0  0
 13 14  1  1  0  0  0
 13 15  1  0  0  0  0
 13 21  1  0  0  0  0
 14 46  1  0  0  0  0
 15 16  1  0  0  0  0
 16 17  1  6  0  0  0
 16 18  1  0  0  0  0
 18  2  1  6  0  0  0
 18 19  1  0  0  0  0
 19 20  1  6  0  0  0
 19 21  1  0  0  0  0
 21 22  1  1  0  0  0
 23 20  1  1  0  0  0
 23 24  1  0  0  0  0
 23 28  1  0  0  0  0
 24 25  1  6  0  0  0
 24 26  1  0  0  0  0
 26 27  1  0  0  0  0
 26 32  1  6  0  0  0
 27 28  1  0  0  0  0
 27 29  1  1  0  0  0
 29 30  1  0  0  0  0
 31 32  1  1  0  0  0
 31 33  1  0  0  0  0
 31 39  1  0  0  0  0
 33 36  1  0  0  0  0
 33 41  1  1  0  0  0
 34 40  1  0  0  0  0
 35 48  1  0  0  0  0
 36 37  1  0  0  0  0
 36 45  1  6  0  0  0
 37 38  1  0  0  0  0
 37 44  1  1  0  0  0
 38 39  1  0  0  0  0
 38 40  1  1  0  0  0
 43 47  1  0  0  0  0
 46 48  1  0  0  0  0
 48 43  1  6  0  0  0
M  END
>  <CHROM.1>
-173.15167968,-149.12811487,-174.95234038,-83.28755672,-47.90853210,-177.62989068
77.03980498,69.79568554,-176.23877725,57.14342043,178.56383881,-72.16649298
145.97371590,27.99682200,10.36332320,3.14859716,1.07078372,-0.18675569,-1.86608590

>  <Name>
ligand

>  <RI>
0

>  <Rbt.Current_Directory>
/home/itssahil/PROJECTS/Mol_Feturizer/New_Systems/rnas/4PDQ

>  <Rbt.Executable>
rbdock ($Id: //depot/dev/client3/rdock/2013.1/src/exe/rbdock.cxx#4 $)

>  <Rbt.Library>
libRbt.so (2013.1, Build901 2013/11/27)

>  <Rbt.Parameter_File>
/export/apps/rDock/src/rDock_2013.1_src/data/scripts/dock_solv.prm

>  <Rbt.Receptor>
prm/pocket_docking_4.prm

>  <SCORE>
-15.8466

>  <SCORE.INTER>
-4.96438

>  <SCORE.INTER.CONST>
1

>  <SCORE.INTER.POLAR>
0

>  <SCORE.INTER.ROT>
13

>  <SCORE.INTER.SOLV>
23.4988

>  <SCORE.INTER.VDW>
-23.4092

>  <SCORE.INTER.norm>
-0.101314

>  <SCORE.INTRA>
-10.8822

>  <SCORE.INTRA.DIHEDRAL>
-25.4622

>  <SCORE.INTRA.DIHEDRAL.0>
34.5115

>  <SCORE.INTRA.POLAR>
0

>  <SCORE.INTRA.POLAR.0>
0

>  <SCORE.INTRA.REPUL>
0

>  <SCORE.INTRA.REPUL.0>
0

>  <SCORE.INTRA.SOLV>
-1.84106

>  <SCORE.INTRA.SOLV.lig_0>
-122.812

>  <SCORE.INTRA.VDW>
2.76942

>  <SCORE.INTRA.VDW.0>
-7.46208

>  <SCORE.INTRA.norm>
-0.222086

>  <SCORE.RESTR>
0

>  <SCORE.RESTR.CAVITY>
0

>  <SCORE.RESTR.norm>
0

>  <SCORE.SYSTEM>
0

>  <SCORE.SYSTEM.CONST>
0

>  <SCORE.SYSTEM.DIHEDRAL>
0

>  <SCORE.SYSTEM.SOLV>
0

>  <SCORE.SYSTEM.norm>
0

>  <SCORE.heavy>
49

>  <SCORE.norm>
-0.3234

>  <RMSD>
9.157

$$$$
ligand
 OpenBabel11021811513D
libRbt.so/2013.1/901 2013/11/27
 49 52  0  0  0  0  0  0  0  0999 V2000
   28.6176    7.7328    1.0908 C   0  0  2  0  0  0  0  0  0  0  0  0
   29.1687    8.0824    2.3261 O   0  0  0  0  0  0  0  0  0  0  0  0
   28.8500    6.1998    0.8205 C   0  0  2  0  0  0  0  0  0  0  0  0
   28.2040    5.3934    1.9363 N   0  0  0  0  0  0  0  0  0  0  0  0
   26.5410   13.1714    6.0971 O   0  0  0  0  0  0  0  0  0  0  0  0
   30.3622    5.8959    0.7073 C   0  0  2  0  0  0  0  0  0  0  0  0
   30.6341   13.2673    7.8440 N   0  0  0  0  0  0  0  0  0  0  0  0
   30.9959    6.7363   -0.4123 C   0  0  2  0  0  0  0  0  0  0  0  0
   30.7800    8.2909   -0.1749 C   0  0  2  0  0  0  0  0  0  0  0  0
   29.2782    8.5349   -0.0160 O   0  0  0  0  0  0  0  0  0  0  0  0
   31.3756    9.1327   -1.3404 C   0  0  0  0  0  0  0  0  0  0  0  0
   31.3881   10.5296   -1.0906 N   0  0  0  0  0  0  0  0  0  0  0  0
   28.6151   11.4382    5.0159 C   0  0  2  0  0  0  0  0  0  0  0  0
   28.9072   12.7052    5.7483 N   0  0  0  0  0  0  0  0  0  0  0  0
   29.9324   10.5260    5.1118 C   0  0  0  0  0  0  0  0  0  0  0  0
   29.7018    9.1507    4.3815 C   0  0  2  0  0  0  0  0  0  0  0  0
   30.9090    8.3137    4.4450 N   0  0  0  0  0  0  0  0  0  0  0  0
   29.3547    9.3856    2.8978 C   0  0  2  0  0  0  0  0  0  0  0  0
   28.0609   10.2866    2.7675 C   0  0  2  0  0  0  0  0  0  0  0  0
   27.8106   10.4449    1.3212 O   0  0  0  0  0  0  0  0  0  0  0  0
   28.3460   11.7123    3.4657 C   0  0  1  0  0  0  0  0  0  0  0  0
   27.1998   12.4924    3.3336 O   0  0  0  0  0  0  0  0  0  0  0  0
   26.8004   11.0237    0.7669 C   0  0  1  0  0  0  0  0  0  0  0  0
   26.7251   10.9113   -0.7843 C   0  0  2  0  0  0  0  0  0  0  0  0
   27.3855   12.0092   -1.3304 O   0  0  0  0  0  0  0  0  0  0  0  0
   25.2652   11.0220   -0.9413 C   0  0  1  0  0  0  0  0  0  0  0  0
   24.5899   10.2308    0.2212 C   0  0  2  0  0  0  0  0  0  0  0  0
   25.4921   10.5707    1.2454 O   0  0  0  0  0  0  0  0  0  0  0  0
   24.2856    8.7477    0.0051 C   0  0  0  0  0  0  0  0  0  0  0  0
   23.7889    8.2615    1.2378 O   0  0  0  0  0  0  0  0  0  0  0  0
   24.7570   13.1245   -2.1009 C   0  0  2  0  0  0  0  0  0  0  0  0
   24.9453   12.4859   -0.9092 O   0  0  0  0  0  0  0  0  0  0  0  0
   23.4318   12.7874   -2.7184 C   0  0  1  0  0  0  0  0  0  0  0  0
   26.9822   13.9748   -6.7466 N   0  0  0  0  0  0  0  0  0  0  0  0
   27.1895   15.8203    6.9475 O   0  0  0  0  0  0  0  0  0  0  0  0
   23.3032   13.5167   -4.1118 C   0  0  2  0  0  0  0  0  0  0  0  0
   24.4599   13.1709   -5.1124 C   0  0  1  0  0  0  0  0  0  0  0  0
   25.7225   13.5128   -4.5004 C   0  0  1  0  0  0  0  0  0  0  0  0
   25.8708   12.8236   -3.1572 O   0  0  0  0  0  0  0  0  0  0  0  0
   26.9308   13.1371   -5.4658 C   0  0  0  0  0  0  0  0  0  0  0  0
   23.3428   11.3987   -2.9422 N   0  0  0  0  0  0  0  0  0  0  0  0
   30.5029    4.7866    0.4710 O   0  0  0  0  0  0  0  0  0  0  0  0
   28.4234   14.4613    8.2857 C   0  0  0  0  0  0  0  0  0  0  0  0
   24.4382   12.0410   -5.3135 O   0  0  0  0  0  0  0  0  0  0  0  0
   23.3526   14.6512   -3.9281 O   0  0  0  0  0  0  0  0  0  0  0  0
   27.7295   13.4915    6.2416 C   0  0  0  0  0  0  0  0  0  0  0  0
   29.7715   14.2250    8.4367 C   0  0  0  0  0  0  0  0  0  0  0  0
   28.2067   14.8237    7.0220 C   0  0  1  0  0  0  0  0  0  0  0  0
   30.4199    6.3980   -1.6497 F   0  0  0  0  0  0  0  0  0  0  0  0
  1  2  1  1  0  0  0
  1 10  1  0  0  0  0
  1  3  1  0  0  0  0
  3  4  1  1  0  0  0
  3  6  1  0  0  0  0
  5 46  2  0  0  0  0
  6 42  1  6  0  0  0
  6  8  1  0  0  0  0
  7 47  1  0  0  0  0
  8  9  1  0  0  0  0
  8 49  1  6  0  0  0
  9 10  1  0  0  0  0
  9 11  1  6  0  0  0
 11 12  1  0  0  0  0
 13 14  1  1  0  0  0
 13 15  1  0  0  0  0
 13 21  1  0  0  0  0
 14 46  1  0  0  0  0
 15 16  1  0  0  0  0
 16 17  1  6  0  0  0
 16 18  1  0  0  0  0
 18  2  1  1  0  0  0
 18 19  1  0  0  0  0
 19 20  1  6  0  0  0
 19 21  1  0  0  0  0
 21 22  1  1  0  0  0
 23 20  1  1  0  0  0
 23 24  1  0  0  0  0
 23 28  1  0  0  0  0
 24 25  1  6  0  0  0
 24 26  1  0  0  0  0
 26 27  1  0  0  0  0
 26 32  1  1  0  0  0
 27 28  1  0  0  0  0
 27 29  1  6  0  0  0
 29 30  1  0  0  0  0
 31 32  1  1  0  0  0
 31 33  1  0  0  0  0
 31 39  1  0  0  0  0
 33 36  1  0  0  0  0
 33 41  1  6  0  0  0
 34 40  1  0  0  0  0
 35 48  1  0  0  0  0
 36 37  1  0  0  0  0
 36 45  1  1  0  0  0
 37 38  1  0  0  0  0
 37 44  1  1  0  0  0
 38 39  1  0  0  0  0
 38 40  1  6  0  0  0
 43 47  1  0  0  0  0
 46 48  1  0  0  0  0
 48 43  1  1  0  0  0
M  END
>  <CHROM.1>
170.67678768,167.49202866,-171.21367296,-157.98456385,174.53176900,-173.84938279
99.01388723,175.18667390,74.73371761,66.81884594,-63.20410006,-143.44676251
-27.12328929,27.52338855,10.85521708,0.89527954,-0.87878303,0.93704875,-2.10581585

>  <Name>
ligand

>  <RI>
0

>  <Rbt.Current_Directory>
/home/itssahil/PROJECTS/Mol_Feturizer/New_Systems/rnas/4PDQ

>  <Rbt.Executable>
rbdock ($Id: //depot/dev/client3/rdock/2013.1/src/exe/rbdock.cxx#4 $)

>  <Rbt.Library>
libRbt.so (2013.1, Build901 2013/11/27)

>  <Rbt.Parameter_File>
/export/apps/rDock/src/rDock_2013.1_src/data/scripts/dock_solv.prm

>  <Rbt.Receptor>
prm/pocket_docking_6.prm

>  <SCORE>
-17.0722

>  <SCORE.INTER>
-8.5685

>  <SCORE.INTER.CONST>
1

>  <SCORE.INTER.POLAR>
0

>  <SCORE.INTER.ROT>
13

>  <SCORE.INTER.SOLV>
16.744

>  <SCORE.INTER.VDW>
-23.5603

>  <SCORE.INTER.norm>
-0.174867

>  <SCORE.INTRA>
-8.50369

>  <SCORE.INTRA.DIHEDRAL>
-20.8555

>  <SCORE.INTRA.DIHEDRAL.0>
34.5115

>  <SCORE.INTRA.POLAR>
0

>  <SCORE.INTRA.POLAR.0>
0

>  <SCORE.INTRA.REPUL>
0

>  <SCORE.INTRA.REPUL.0>
0

>  <SCORE.INTRA.SOLV>
0.680866

>  <SCORE.INTRA.SOLV.lig_0>
-122.812

>  <SCORE.INTRA.VDW>
1.5836

>  <SCORE.INTRA.VDW.0>
-7.46208

>  <SCORE.INTRA.norm>
-0.173545

>  <SCORE.RESTR>
0

>  <SCORE.RESTR.CAVITY>
0

>  <SCORE.RESTR.norm>
0

>  <SCORE.SYSTEM>
0

>  <SCORE.SYSTEM.CONST>
0

>  <SCORE.SYSTEM.DIHEDRAL>
0

>  <SCORE.SYSTEM.SOLV>
0

>  <SCORE.SYSTEM.norm>
0

>  <SCORE.heavy>
49

>  <SCORE.norm>
-0.348412

>  <RMSD>
9.244

$$$$
ligand
 OpenBabel11021811513D
libRbt.so/2013.1/901 2013/11/27
 49 52  0  0  0  0  0  0  0  0999 V2000
   28.2524    9.9091    7.8087 C   0  0  2  0  0  0  0  0  0  0  0  0
   27.2476    9.5220    6.9185 O   0  0  0  0  0  0  0  0  0  0  0  0
   28.1229    9.0880    9.1452 C   0  0  2  0  0  0  0  0  0  0  0  0
   28.2355    7.6043    8.8315 N   0  0  0  0  0  0  0  0  0  0  0  0
   24.1821    7.9871    1.3004 O   0  0  0  0  0  0  0  0  0  0  0  0
   26.7865    9.4156    9.8514 C   0  0  2  0  0  0  0  0  0  0  0  0
   24.1592   12.5165   -2.3865 N   0  0  0  0  0  0  0  0  0  0  0  0
   26.6874   10.9218   10.1398 C   0  0  2  0  0  0  0  0  0  0  0  0
   26.8159   11.7843    8.8135 C   0  0  2  0  0  0  0  0  0  0  0  0
   28.1227   11.3885    8.1237 O   0  0  0  0  0  0  0  0  0  0  0  0
   26.7703   13.3094    9.1197 C   0  0  0  0  0  0  0  0  0  0  0  0
   27.9882   13.8281    9.6314 N   0  0  0  0  0  0  0  0  0  0  0  0
   26.4913    9.1146    2.6683 C   0  0  2  0  0  0  0  0  0  0  0  0
   26.1033    9.4859    1.2759 N   0  0  0  0  0  0  0  0  0  0  0  0
   25.3617    9.7053    3.6437 C   0  0  0  0  0  0  0  0  0  0  0  0
   25.6813    9.3362    5.1403 C   0  0  2  0  0  0  0  0  0  0  0  0
   24.6637    9.8893    6.0462 N   0  0  0  0  0  0  0  0  0  0  0  0
   27.0537    9.9071    5.5496 C   0  0  2  0  0  0  0  0  0  0  0  0
   28.1912    9.3470    4.6035 C   0  0  2  0  0  0  0  0  0  0  0  0
   29.4556    9.9422    5.0791 O   0  0  0  0  0  0  0  0  0  0  0  0
   27.8747    9.7943    3.0865 C   0  0  1  0  0  0  0  0  0  0  0  0
   28.8898    9.2991    2.2717 O   0  0  0  0  0  0  0  0  0  0  0  0
   30.6518    9.5515    4.7976 C   0  0  1  0  0  0  0  0  0  0  0  0
   31.7943   10.5293    5.2016 C   0  0  2  0  0  0  0  0  0  0  0  0
   32.0428   11.3741    4.1225 O   0  0  0  0  0  0  0  0  0  0  0  0
   32.8735    9.5437    5.3798 C   0  0  1  0  0  0  0  0  0  0  0  0
   32.2661    8.2742    6.0528 C   0  0  2  0  0  0  0  0  0  0  0  0
   31.0314    8.2617    5.3791 O   0  0  0  0  0  0  0  0  0  0  0  0
   32.2431    8.2066    7.5805 C   0  0  0  0  0  0  0  0  0  0  0  0
   31.5297    7.0310    7.9144 O   0  0  0  0  0  0  0  0  0  0  0  0
   32.8080    8.3157    3.2558 C   0  0  2  0  0  0  0  0  0  0  0  0
   33.4257    9.2681    4.0140 O   0  0  0  0  0  0  0  0  0  0  0  0
   33.3046    6.9351    3.5696 C   0  0  1  0  0  0  0  0  0  0  0  0
   31.7875    6.9381   -1.6823 N   0  0  0  0  0  0  0  0  0  0  0  0
   23.5356    8.5618   -1.3705 O   0  0  0  0  0  0  0  0  0  0  0  0
   32.5881    5.8940    2.6248 C   0  0  2  0  0  0  0  0  0  0  0  0
   32.7796    6.1941    1.0977 C   0  0  1  0  0  0  0  0  0  0  0  0
   32.2861    7.5223    0.8188 C   0  0  1  0  0  0  0  0  0  0  0  0
   32.9600    8.5435    1.7156 O   0  0  0  0  0  0  0  0  0  0  0  0
   32.5011    7.8872   -0.7154 C   0  0  0  0  0  0  0  0  0  0  0  0
   34.6920    6.8562    3.3344 N   0  0  0  0  0  0  0  0  0  0  0  0
   26.7346    8.8394   10.8371 O   0  0  0  0  0  0  0  0  0  0  0  0
   24.2454   10.6105   -0.6929 C   0  0  0  0  0  0  0  0  0  0  0  0
   33.9020    6.1571    0.8600 O   0  0  0  0  0  0  0  0  0  0  0  0
   31.4576    5.9411    2.8321 O   0  0  0  0  0  0  0  0  0  0  0  0
   24.8889    8.8145    0.7074 C   0  0  0  0  0  0  0  0  0  0  0  0
   24.3939   11.1933   -1.9316 C   0  0  0  0  0  0  0  0  0  0  0  0
   24.5920    9.3281   -0.7958 C   0  0  1  0  0  0  0  0  0  0  0  0
   27.7160   11.3104   11.0163 F   0  0  0  0  0  0  0  0  0  0  0  0
  1  2  1  6  0  0  0
  1 10  1  0  0  0  0
  1  3  1  0  0  0  0
  3  4  1  6  0  0  0
  3  6  1  0  0  0  0
  5 46  2  0  0  0  0
  6 42  1  1  0  0  0
  6  8  1  0  0  0  0
  7 47  1  0  0  0  0
  8  9  1  0  0  0  0
  8 49  1  1  0  0  0
  9 10  1  0  0  0  0
  9 11  1  1  0  0  0
 11 12  1  0  0  0  0
 13 14  1  6  0  0  0
 13 15  1  0  0  0  0
 13 21  1  0  0  0  0
 14 46  1  0  0  0  0
 15 16  1  0  0  0  0
 16 17  1  1  0  0  0
 16 18  1  0  0  0  0
 18  2  1  1  0  0  0
 18 19  1  0  0  0  0
 19 20  1  1  0  0  0
 19 21  1  0  0  0  0
 21 22  1  6  0  0  0
 23 20  1  1  0  0  0
 23 24  1  0  0  0  0
 23 28  1  0  0  0  0
 24 25  1  6  0  0  0
 24 26  1  0  0  0  0
 26 27  1  0  0  0  0
 26 32  1  6  0  0  0
 27 28  1  0  0  0  0
 27 29  1  1  0  0  0
 29 30  1  0  0  0  0
 31 32  1  1  0  0  0
 31 33  1  0  0  0  0
 31 39  1  0  0  0  0
 33 36  1  0  0  0  0
 33 41  1  6  0  0  0
 34 40  1  0  0  0  0
 35 48  1  0  0  0  0
 36 37  1  0  0  0  0
 36 45  1  1  0  0  0
 37 38  1  0  0  0  0
 37 44  1  1  0  0  0
 38 39  1  0  0  0  0
 38 40  1  6  0  0  0
 43 47  1  0  0  0  0
 46 48  1  0  0  0  0
 48 43  1  1  0  0  0
M  END
>  <CHROM.1>
-173.59342474,-171.98374036,77.72794598,-68.88009533,163.80279037,168.14550952
-85.66389695,174.32760191,-84.72235289,59.83835919,179.45649430,-79.27417036
-7.87708749,28.95861311,9.20551520,4.37722025,1.75749754,-0.33309904,1.39136914

>  <Name>
ligand

>  <RI>
0

>  <Rbt.Current_Directory>
/home/itssahil/PROJECTS/Mol_Feturizer/New_Systems/rnas/4PDQ

>  <Rbt.Executable>
rbdock ($Id: //depot/dev/client3/rdock/2013.1/src/exe/rbdock.cxx#4 $)

>  <Rbt.Library>
libRbt.so (2013.1, Build901 2013/11/27)

>  <Rbt.Parameter_File>
/export/apps/rDock/src/rDock_2013.1_src/data/scripts/dock_solv.prm

>  <Rbt.Receptor>
prm/pocket_docking_5.prm

>  <SCORE>
-15.7329

>  <SCORE.INTER>
-6.61671

>  <SCORE.INTER.CONST>
1

>  <SCORE.INTER.POLAR>
0

>  <SCORE.INTER.ROT>
13

>  <SCORE.INTER.SOLV>
20.2001

>  <SCORE.INTER.VDW>
-23.4112

>  <SCORE.INTER.norm>
-0.135035

>  <SCORE.INTRA>
-9.1162

>  <SCORE.INTRA.DIHEDRAL>
-23.3195

>  <SCORE.INTRA.DIHEDRAL.0>
34.5115

>  <SCORE.INTRA.POLAR>
0

>  <SCORE.INTRA.POLAR.0>
0

>  <SCORE.INTRA.REPUL>
0.0121639

>  <SCORE.INTRA.REPUL.0>
0

>  <SCORE.INTRA.SOLV>
-1.35301

>  <SCORE.INTRA.SOLV.lig_0>
-122.812

>  <SCORE.INTRA.VDW>
3.15921

>  <SCORE.INTRA.VDW.0>
-7.46208

>  <SCORE.INTRA.norm>
-0.186045

>  <SCORE.RESTR>
0

>  <SCORE.RESTR.CAVITY>
0

>  <SCORE.RESTR.norm>
0

>  <SCORE.SYSTEM>
0

>  <SCORE.SYSTEM.CONST>
0

>  <SCORE.SYSTEM.DIHEDRAL>
0

>  <SCORE.SYSTEM.SOLV>
0

>  <SCORE.SYSTEM.norm>
0

>  <SCORE.heavy>
49

>  <SCORE.norm>
-0.32108

>  <RMSD>
9.259

$$$$
ligand
 OpenBabel11021811513D
libRbt.so/2013.1/901 2013/11/27
 49 52  0  0  0  0  0  0  0  0999 V2000
   25.8507    8.1497    1.7102 C   0  0  2  0  0  0  0  0  0  0  0  0
   26.3807    8.2473    2.9993 O   0  0  0  0  0  0  0  0  0  0  0  0
   24.8103    6.9702    1.6519 C   0  0  2  0  0  0  0  0  0  0  0  0
   23.7035    7.2314    2.6615 N   0  0  0  0  0  0  0  0  0  0  0  0
   25.2882   14.4194    4.7468 O   0  0  0  0  0  0  0  0  0  0  0  0
   25.5124    5.6187    1.9212 C   0  0  2  0  0  0  0  0  0  0  0  0
   29.2546   14.8001    7.6566 N   0  0  0  0  0  0  0  0  0  0  0  0
   26.6385    5.3866    0.9017 C   0  0  2  0  0  0  0  0  0  0  0  0
   27.7083    6.5590    0.9299 C   0  0  2  0  0  0  0  0  0  0  0  0
   26.9626    7.8771    0.7131 O   0  0  0  0  0  0  0  0  0  0  0  0
   28.8151    6.3454   -0.1429 C   0  0  0  0  0  0  0  0  0  0  0  0
   28.3113    6.1416   -1.4539 N   0  0  0  0  0  0  0  0  0  0  0  0
   27.2058   12.4162    3.8608 C   0  0  2  0  0  0  0  0  0  0  0  0
   27.5921   13.6340    4.6320 N   0  0  0  0  0  0  0  0  0  0  0  0
   26.1921   11.5792    4.7819 C   0  0  0  0  0  0  0  0  0  0  0  0
   25.7119   10.2818    4.0307 C   0  0  2  0  0  0  0  0  0  0  0  0
   24.7980    9.4956    4.8725 N   0  0  0  0  0  0  0  0  0  0  0  0
   26.9206    9.3947    3.6713 C   0  0  2  0  0  0  0  0  0  0  0  0
   27.9434   10.1925    2.7655 C   0  0  2  0  0  0  0  0  0  0  0  0
   29.0509    9.2613    2.4729 O   0  0  0  0  0  0  0  0  0  0  0  0
   28.4693   11.4798    3.5826 C   0  0  1  0  0  0  0  0  0  0  0  0
   29.3729   12.1633    2.7727 O   0  0  0  0  0  0  0  0  0  0  0  0
   29.6919    9.1426    1.3603 C   0  0  1  0  0  0  0  0  0  0  0  0
   30.1205   10.4771    0.6822 C   0  0  2  0  0  0  0  0  0  0  0  0
   29.1049   10.8662   -0.1880 O   0  0  0  0  0  0  0  0  0  0  0  0
   31.3008    9.9834   -0.0465 C   0  0  1  0  0  0  0  0  0  0  0  0
   32.0454    8.9630    0.8688 C   0  0  2  0  0  0  0  0  0  0  0  0
   30.9176    8.3442    1.4377 O   0  0  0  0  0  0  0  0  0  0  0  0
   33.1199    9.4939    1.8188 C   0  0  0  0  0  0  0  0  0  0  0  0
   33.6215    8.3701    2.5174 O   0  0  0  0  0  0  0  0  0  0  0  0
   31.7044    8.9632   -2.2419 C   0  0  2  0  0  0  0  0  0  0  0  0
   30.7892    9.3625   -1.3110 O   0  0  0  0  0  0  0  0  0  0  0  0
   31.8635    7.4716   -2.2731 C   0  0  1  0  0  0  0  0  0  0  0  0
   36.1051    9.6483   -1.3356 N   0  0  0  0  0  0  0  0  0  0  0  0
   26.3586   17.0187    5.4873 O   0  0  0  0  0  0  0  0  0  0  0  0
   32.9690    7.0854   -3.3308 C   0  0  2  0  0  0  0  0  0  0  0  0
   34.3579    7.7632   -3.0657 C   0  0  1  0  0  0  0  0  0  0  0  0
   34.1810    9.1964   -3.0500 C   0  0  1  0  0  0  0  0  0  0  0  0
   33.1215    9.5944   -2.0400 O   0  0  0  0  0  0  0  0  0  0  0  0
   35.5610    9.9260   -2.7398 C   0  0  0  0  0  0  0  0  0  0  0  0
   32.2836    7.0045   -1.0114 N   0  0  0  0  0  0  0  0  0  0  0  0
   24.7453    4.7760    1.8332 O   0  0  0  0  0  0  0  0  0  0  0  0
   26.8701   15.5443    7.1379 C   0  0  0  0  0  0  0  0  0  0  0  0
   34.7350    7.4240   -2.0361 O   0  0  0  0  0  0  0  0  0  0  0  0
   32.6168    7.4458   -4.3648 O   0  0  0  0  0  0  0  0  0  0  0  0
   26.4885   14.5751    5.0130 C   0  0  0  0  0  0  0  0  0  0  0  0
   27.8490   14.6574    7.5266 C   0  0  0  0  0  0  0  0  0  0  0  0
   27.0613   15.8324    5.8512 C   0  0  1  0  0  0  0  0  0  0  0  0
   26.1022    5.3143   -0.3962 F   0  0  0  0  0  0  0  0  0  0  0  0
  1  2  1  1  0  0  0
  1 10  1  0  0  0  0
  1  3  1  0  0  0  0
  3  4  1  1  0  0  0
  3  6  1  0  0  0  0
  5 46  2  0  0  0  0
  6 42  1  6  0  0  0
  6  8  1  0  0  0  0
  7 47  1  0  0  0  0
  8  9  1  0  0  0  0
  8 49  1  6  0  0  0
  9 10  1  0  0  0  0
  9 11  1  6  0  0  0
 11 12  1  0  0  0  0
 13 14  1  1  0  0  0
 13 15  1  0  0  0  0
 13 21  1  0  0  0  0
 14 46  1  0  0  0  0
 15 16  1  0  0  0  0
 16 17  1  1  0  0  0
 16 18  1  0  0  0  0
 18  2  1  6  0  0  0
 18 19  1  0  0  0  0
 19 20  1  1  0  0  0
 19 21  1  0  0  0  0
 21 22  1  6  0  0  0
 23 20  1  1  0  0  0
 23 24  1  0  0  0  0
 23 28  1  0  0  0  0
 24 25  1  6  0  0  0
 24 26  1  0  0  0  0
 26 27  1  0  0  0  0
 26 32  1  6  0  0  0
 27 28  1  0  0  0  0
 27 29  1  1  0  0  0
 29 30  1  0  0  0  0
 31 32  1  1  0  0  0
 31 33  1  0  0  0  0
 31 39  1  0  0  0  0
 33 36  1  0  0  0  0
 33 41  1  1  0  0  0
 34 40  1  0  0  0  0
 35 48  1  0  0  0  0
 36 37  1  0  0  0  0
 36 45  1  6  0  0  0
 37 38  1  0  0  0  0
 37 44  1  1  0  0  0
 38 39  1  0  0  0  0
 38 40  1  1  0  0  0
 43 47  1  0  0  0  0
 46 48  1  0  0  0  0
 48 43  1  1  0  0  0
M  END
>  <CHROM.1>
-153.26381343,73.25727685,53.23985857,-60.81570252,141.53305822,44.98254541
172.58151508,179.96645397,105.38575459,-65.51148054,66.62858957,-162.60971692
-38.25193019,29.14798167,9.60260193,1.48096350,2.26328412,0.44968110,0.59783139

>  <Name>
ligand

>  <RI>
0

>  <Rbt.Current_Directory>
/home/itssahil/PROJECTS/Mol_Feturizer/New_Systems/rnas/4PDQ

>  <Rbt.Executable>
rbdock ($Id: //depot/dev/client3/rdock/2013.1/src/exe/rbdock.cxx#4 $)

>  <Rbt.Library>
libRbt.so (2013.1, Build901 2013/11/27)

>  <Rbt.Parameter_File>
/export/apps/rDock/src/rDock_2013.1_src/data/scripts/dock_solv.prm

>  <Rbt.Receptor>
prm/pocket_docking_6.prm

>  <SCORE>
-2.38895

>  <SCORE.INTER>
-0.211663

>  <SCORE.INTER.CONST>
1

>  <SCORE.INTER.POLAR>
0

>  <SCORE.INTER.ROT>
13

>  <SCORE.INTER.SOLV>
24.4713

>  <SCORE.INTER.VDW>
-20.5649

>  <SCORE.INTER.norm>
-0.00431966

>  <SCORE.INTRA>
-2.17729

>  <SCORE.INTRA.DIHEDRAL>
-14.6009

>  <SCORE.INTRA.DIHEDRAL.0>
34.5115

>  <SCORE.INTRA.POLAR>
0

>  <SCORE.INTRA.POLAR.0>
0

>  <SCORE.INTRA.REPUL>
0

>  <SCORE.INTRA.REPUL.0>
0

>  <SCORE.INTRA.SOLV>
7.42802

>  <SCORE.INTRA.SOLV.lig_0>
-122.812

>  <SCORE.INTRA.VDW>
1.40915

>  <SCORE.INTRA.VDW.0>
-7.46208

>  <SCORE.INTRA.norm>
-0.0444345

>  <SCORE.RESTR>
0

>  <SCORE.RESTR.CAVITY>
0

>  <SCORE.RESTR.norm>
0

>  <SCORE.SYSTEM>
0

>  <SCORE.SYSTEM.CONST>
0

>  <SCORE.SYSTEM.DIHEDRAL>
0

>  <SCORE.SYSTEM.SOLV>
0

>  <SCORE.SYSTEM.norm>
0

>  <SCORE.heavy>
49

>  <SCORE.norm>
-0.0487542

>  <RMSD>
9.321

$$$$
ligand
 OpenBabel11021811513D
libRbt.so/2013.1/901 2013/11/27
 49 52  0  0  0  0  0  0  0  0999 V2000
   26.7322   11.0339    6.9368 C   0  0  2  0  0  0  0  0  0  0  0  0
   26.1119   10.0459    6.1680 O   0  0  0  0  0  0  0  0  0  0  0  0
   26.5906   12.4293    6.2226 C   0  0  2  0  0  0  0  0  0  0  0  0
   25.1150   12.7483    6.0401 N   0  0  0  0  0  0  0  0  0  0  0  0
   22.2794    4.4073    6.7316 O   0  0  0  0  0  0  0  0  0  0  0  0
   27.3374   12.4196    4.8683 C   0  0  2  0  0  0  0  0  0  0  0  0
   21.9626    0.9638    8.9379 N   0  0  0  0  0  0  0  0  0  0  0  0
   28.8207   12.0757    5.0762 C   0  0  2  0  0  0  0  0  0  0  0  0
   29.0039   10.6733    5.7969 C   0  0  2  0  0  0  0  0  0  0  0  0
   28.2065   10.7112    7.1019 O   0  0  0  0  0  0  0  0  0  0  0  0
   30.5058   10.3575    6.0539 C   0  0  0  0  0  0  0  0  0  0  0  0
   31.2608   10.1584    4.8689 N   0  0  0  0  0  0  0  0  0  0  0  0
   24.7262    5.9835    6.7844 C   0  0  2  0  0  0  0  0  0  0  0  0
   24.7146    4.4915    6.7565 N   0  0  0  0  0  0  0  0  0  0  0  0
   25.1802    6.4769    5.3260 C   0  0  0  0  0  0  0  0  0  0  0  0
   25.1961    8.0496    5.2590 C   0  0  2  0  0  0  0  0  0  0  0  0
   25.6301    8.5142    3.9333 N   0  0  0  0  0  0  0  0  0  0  0  0
   26.1676    8.6190    6.3120 C   0  0  2  0  0  0  0  0  0  0  0  0
   25.7503    8.1473    7.7633 C   0  0  2  0  0  0  0  0  0  0  0  0
   26.7297    8.7468    8.6911 O   0  0  0  0  0  0  0  0  0  0  0  0
   25.8054    6.5365    7.8238 C   0  0  1  0  0  0  0  0  0  0  0  0
   25.4429    6.1420    9.1094 O   0  0  0  0  0  0  0  0  0  0  0  0
   26.5320    9.0764    9.9220 C   0  0  1  0  0  0  0  0  0  0  0  0
   27.7053    9.8287   10.6164 C   0  0  2  0  0  0  0  0  0  0  0  0
   28.5281    8.8822   11.2221 O   0  0  0  0  0  0  0  0  0  0  0  0
   26.9237   10.5844   11.6094 C   0  0  1  0  0  0  0  0  0  0  0  0
   25.6034   11.0606   10.9286 C   0  0  2  0  0  0  0  0  0  0  0  0
   25.3527    9.9139   10.1536 O   0  0  0  0  0  0  0  0  0  0  0  0
   25.6047   12.4139   10.2161 C   0  0  0  0  0  0  0  0  0  0  0  0
   24.2765   12.6333    9.7800 O   0  0  0  0  0  0  0  0  0  0  0  0
   26.0196   10.1386   13.8471 C   0  0  2  0  0  0  0  0  0  0  0  0
   26.6808    9.6512   12.7568 O   0  0  0  0  0  0  0  0  0  0  0  0
   26.7780   11.2453   14.5187 C   0  0  1  0  0  0  0  0  0  0  0  0
   25.9449    7.5898   17.6091 N   0  0  0  0  0  0  0  0  0  0  0  0
   24.3467    1.8345    5.5914 O   0  0  0  0  0  0  0  0  0  0  0  0
   25.9835   11.7244   15.7952 C   0  0  2  0  0  0  0  0  0  0  0  0
   25.6944   10.5769   16.8240 C   0  0  1  0  0  0  0  0  0  0  0  0
   24.9563    9.5295   16.1578 C   0  0  1  0  0  0  0  0  0  0  0  0
   25.6997    9.0510   14.9251 O   0  0  0  0  0  0  0  0  0  0  0  0
   24.6781    8.3211   17.1556 C   0  0  0  0  0  0  0  0  0  0  0  0
   28.0403   10.7799   14.9387 N   0  0  0  0  0  0  0  0  0  0  0  0
   27.2544   13.4540    4.3893 O   0  0  0  0  0  0  0  0  0  0  0  0
   24.0877    1.8608    7.8480 C   0  0  0  0  0  0  0  0  0  0  0  0
   26.6985   10.1529   17.1841 O   0  0  0  0  0  0  0  0  0  0  0  0
   24.9619   12.1259   15.4514 O   0  0  0  0  0  0  0  0  0  0  0  0
   23.3723    3.8232    6.7353 C   0  0  0  0  0  0  0  0  0  0  0  0
   23.0986    1.8032    8.8043 C   0  0  0  0  0  0  0  0  0  0  0  0
   23.5253    2.2150    6.6932 C   0  0  1  0  0  0  0  0  0  0  0  0
   29.4339   13.0602    5.8712 F   0  0  0  0  0  0  0  0  0  0  0  0
  1  2  1  6  0  0  0
  1 10  1  0  0  0  0
  1  3  1  0  0  0  0
  3  4  1  6  0  0  0
  3  6  1  0  0  0  0
  5 46  2  0  0  0  0
  6 42  1  1  0  0  0
  6  8  1  0  0  0  0
  7 47  1  0  0  0  0
  8  9  1  0  0  0  0
  8 49  1  1  0  0  0
  9 10  1  0  0  0  0
  9 11  1  1  0  0  0
 11 12  1  0  0  0  0
 13 14  1  6  0  0  0
 13 15  1  0  0  0  0
 13 21  1  0  0  0  0
 14 46  1  0  0  0  0
 15 16  1  0  0  0  0
 16 17  1  6  0  0  0
 16 18  1  0  0  0  0
 18  2  1  1  0  0  0
 18 19  1  0  0  0  0
 19 20  1  1  0  0  0
 19 21  1  0  0  0  0
 21 22  1  1  0  0  0
 23 20  1  6  0  0  0
 23 24  1  0  0  0  0
 23 28  1  0  0  0  0
 24 25  1  1  0  0  0
 24 26  1  0  0  0  0
 26 27  1  0  0  0  0
 26 32  1  1  0  0  0
 27 28  1  0  0  0  0
 27 29  1  6  0  0  0
 29 30  1  0  0  0  0
 31 32  1  6  0  0  0
 31 33  1  0  0  0  0
 31 39  1  0  0  0  0
 33 36  1  0  0  0  0
 33 41  1  1  0  0  0
 34 40  1  0  0  0  0
 35 48  1  0  0  0  0
 36 37  1  0  0  0  0
 36 45  1  6  0  0  0
 37 38  1  0  0  0  0
 37 44  1  6  0  0  0
 38 39  1  0  0  0  0
 38 40  1  1  0  0  0
 43 47  1  0  0  0  0
 46 48  1  0  0  0  0
 48 43  1  1  0  0  0
M  END
>  <CHROM.1>
169.22913399,175.33945955,-66.34467768,-106.69097727,151.10551360,-173.76855918
177.10982037,-175.97989955,-62.79620859,-65.54808630,64.53086673,-158.88710589
124.46119787,26.08089348,8.87220355,9.39183035,-1.66722410,1.12830586,1.31357828

>  <Name>
ligand

>  <RI>
0

>  <Rbt.Current_Directory>
/home/itssahil/PROJECTS/Mol_Feturizer/New_Systems/rnas/4PDQ

>  <Rbt.Executable>
rbdock ($Id: //depot/dev/client3/rdock/2013.1/src/exe/rbdock.cxx#4 $)

>  <Rbt.Library>
libRbt.so (2013.1, Build901 2013/11/27)

>  <Rbt.Parameter_File>
/export/apps/rDock/src/rDock_2013.1_src/data/scripts/dock_solv.prm

>  <Rbt.Receptor>
prm/pocket_docking_8.prm

>  <SCORE>
-9.87249

>  <SCORE.INTER>
2.44325

>  <SCORE.INTER.CONST>
1

>  <SCORE.INTER.POLAR>
0

>  <SCORE.INTER.ROT>
13

>  <SCORE.INTER.SOLV>
14.3936

>  <SCORE.INTER.VDW>
-15.4357

>  <SCORE.INTER.norm>
0.0498623

>  <SCORE.INTRA>
-12.3157

>  <SCORE.INTRA.DIHEDRAL>
-26.421

>  <SCORE.INTRA.DIHEDRAL.0>
34.5115

>  <SCORE.INTRA.POLAR>
0

>  <SCORE.INTRA.POLAR.0>
0

>  <SCORE.INTRA.REPUL>
0

>  <SCORE.INTRA.REPUL.0>
0

>  <SCORE.INTRA.SOLV>
-1.30156

>  <SCORE.INTRA.SOLV.lig_0>
-122.812

>  <SCORE.INTRA.VDW>
1.54552

>  <SCORE.INTRA.VDW.0>
-7.46208

>  <SCORE.INTRA.norm>
-0.251342

>  <SCORE.RESTR>
0

>  <SCORE.RESTR.CAVITY>
0

>  <SCORE.RESTR.norm>
0

>  <SCORE.SYSTEM>
0

>  <SCORE.SYSTEM.CONST>
0

>  <SCORE.SYSTEM.DIHEDRAL>
0

>  <SCORE.SYSTEM.SOLV>
0

>  <SCORE.SYSTEM.norm>
0

>  <SCORE.heavy>
49

>  <SCORE.norm>
-0.201479

>  <RMSD>
9.348

$$$$
ligand
 OpenBabel11021811513D
libRbt.so/2013.1/901 2013/11/27
 49 52  0  0  0  0  0  0  0  0999 V2000
   28.6584    6.9833    1.5869 C   0  0  2  0  0  0  0  0  0  0  0  0
   29.1163    8.2330    1.1618 O   0  0  0  0  0  0  0  0  0  0  0  0
   28.7520    5.9523    0.4014 C   0  0  2  0  0  0  0  0  0  0  0  0
   30.1966    5.8573   -0.0638 N   0  0  0  0  0  0  0  0  0  0  0  0
   28.3343   11.0718    7.0872 O   0  0  0  0  0  0  0  0  0  0  0  0
   27.8137    6.3731   -0.7538 C   0  0  2  0  0  0  0  0  0  0  0  0
   31.6041   12.9740    8.8912 N   0  0  0  0  0  0  0  0  0  0  0  0
   26.3641    6.4816   -0.2552 C   0  0  2  0  0  0  0  0  0  0  0  0
   26.2303    7.5129    0.9440 C   0  0  2  0  0  0  0  0  0  0  0  0
   27.2124    7.0880    2.0373 O   0  0  0  0  0  0  0  0  0  0  0  0
   24.7707    7.5760    1.4801 C   0  0  0  0  0  0  0  0  0  0  0  0
   24.6354    8.3048    2.6903 N   0  0  0  0  0  0  0  0  0  0  0  0
   28.1089   11.1722    4.1866 C   0  0  2  0  0  0  0  0  0  0  0  0
   28.2155   12.3907    5.0416 N   0  0  0  0  0  0  0  0  0  0  0  0
   29.5565   10.4789    4.1747 C   0  0  0  0  0  0  0  0  0  0  0  0
   29.5279    9.1637    3.3100 C   0  0  2  0  0  0  0  0  0  0  0  0
   30.8541    8.5298    3.2747 N   0  0  0  0  0  0  0  0  0  0  0  0
   29.1081    9.4859    1.8619 C   0  0  2  0  0  0  0  0  0  0  0  0
   27.6845   10.1755    1.8382 C   0  0  2  0  0  0  0  0  0  0  0  0
   27.3734   10.4342    0.4184 O   0  0  0  0  0  0  0  0  0  0  0  0
   27.7580   11.5520    2.6755 C   0  0  1  0  0  0  0  0  0  0  0  0
   26.4993   12.1468    2.6361 O   0  0  0  0  0  0  0  0  0  0  0  0
   26.3731   11.1009   -0.0481 C   0  0  1  0  0  0  0  0  0  0  0  0
   26.3875   11.3535   -1.5846 C   0  0  2  0  0  0  0  0  0  0  0  0
   27.0332   12.5653   -1.8180 O   0  0  0  0  0  0  0  0  0  0  0  0
   24.9353   11.4608   -1.8025 C   0  0  1  0  0  0  0  0  0  0  0  0
   24.2289   10.4022   -0.9005 C   0  0  2  0  0  0  0  0  0  0  0  0
   25.0594   10.5153    0.2291 O   0  0  0  0  0  0  0  0  0  0  0  0
   23.9954    9.0038   -1.4741 C   0  0  0  0  0  0  0  0  0  0  0  0
   23.1543    9.1726   -2.5995 O   0  0  0  0  0  0  0  0  0  0  0  0
   24.4117   13.7636   -2.4707 C   0  0  2  0  0  0  0  0  0  0  0  0
   24.5567   12.8677   -1.4510 O   0  0  0  0  0  0  0  0  0  0  0  0
   23.1685   13.5103   -3.2717 C   0  0  1  0  0  0  0  0  0  0  0  0
   26.8850   15.7998   -6.5970 N   0  0  0  0  0  0  0  0  0  0  0  0
   27.1411   14.0840    7.6056 O   0  0  0  0  0  0  0  0  0  0  0  0
   23.0914   14.5463   -4.4595 C   0  0  2  0  0  0  0  0  0  0  0  0
   24.3454   14.5195   -5.4005 C   0  0  1  0  0  0  0  0  0  0  0  0
   25.5264   14.7751   -4.6097 C   0  0  1  0  0  0  0  0  0  0  0  0
   25.6239   13.7913   -3.4591 O   0  0  0  0  0  0  0  0  0  0  0  0
   26.8313   14.7137   -5.5188 C   0  0  0  0  0  0  0  0  0  0  0  0
   23.2058   12.2142   -3.8239 N   0  0  0  0  0  0  0  0  0  0  0  0
   27.8688    5.5889   -1.5834 O   0  0  0  0  0  0  0  0  0  0  0  0
   29.1214   13.3310    8.4250 C   0  0  0  0  0  0  0  0  0  0  0  0
   24.4275   13.4724   -5.8635 O   0  0  0  0  0  0  0  0  0  0  0  0
   23.0377   15.6036   -4.0096 O   0  0  0  0  0  0  0  0  0  0  0  0
   28.3210   12.1745    6.5218 C   0  0  0  0  0  0  0  0  0  0  0  0
   30.4595   13.2688    8.1064 C   0  0  0  0  0  0  0  0  0  0  0  0
   28.4419   13.5819    7.3067 C   0  0  1  0  0  0  0  0  0  0  0  0
   25.9172    5.2265    0.1945 F   0  0  0  0  0  0  0  0  0  0  0  0
  1  2  1  6  0  0  0
  1 10  1  0  0  0  0
  1  3  1  0  0  0  0
  3  4  1  6  0  0  0
  3  6  1  0  0  0  0
  5 46  2  0  0  0  0
  6 42  1  6  0  0  0
  6  8  1  0  0  0  0
  7 47  1  0  0  0  0
  8  9  1  0  0  0  0
  8 49  1  1  0  0  0
  9 10  1  0  0  0  0
  9 11  1  1  0  0  0
 11 12  1  0  0  0  0
 13 14  1  1  0  0  0
 13 15  1  0  0  0  0
 13 21  1  0  0  0  0
 14 46  1  0  0  0  0
 15 16  1  0  0  0  0
 16 17  1  6  0  0  0
 16 18  1  0  0  0  0
 18  2  1  6  0  0  0
 18 19  1  0  0  0  0
 19 20  1  6  0  0  0
 19 21  1  0  0  0  0
 21 22  1  1  0  0  0
 23 20  1  6  0  0  0
 23 24  1  0  0  0  0
 23 28  1  0  0  0  0
 24 25  1  1  0  0  0
 24 26  1  0  0  0  0
 26 27  1  0  0  0  0
 26 32  1  1  0  0  0
 27 28  1  0  0  0  0
 27 29  1  6  0  0  0
 29 30  1  0  0  0  0
 31 32  1  1  0  0  0
 31 33  1  0  0  0  0
 31 39  1  0  0  0  0
 33 36  1  0  0  0  0
 33 41  1  6  0  0  0
 34 40  1  0  0  0  0
 35 48  1  0  0  0  0
 36 37  1  0  0  0  0
 36 45  1  1  0  0  0
 37 38  1  0  0  0  0
 37 44  1  1  0  0  0
 38 39  1  0  0  0  0
 38 40  1  6  0  0  0
 43 47  1  0  0  0  0
 46 48  1  0  0  0  0
 48 43  1  1  0  0  0
M  END
>  <CHROM.1>
174.18641097,41.81031487,169.89815160,-72.89055358,-172.58926433,173.13772371
98.88604376,-61.47166983,72.20595703,64.19330011,-176.78473506,-161.09347087
-92.88363843,26.74599363,10.83799602,0.59408847,-0.08737929,1.15408011,-2.81433267

>  <Name>
ligand

>  <RI>
0

>  <Rbt.Current_Directory>
/home/itssahil/PROJECTS/Mol_Feturizer/New_Systems/rnas/4PDQ

>  <Rbt.Executable>
rbdock ($Id: //depot/dev/client3/rdock/2013.1/src/exe/rbdock.cxx#4 $)

>  <Rbt.Library>
libRbt.so (2013.1, Build901 2013/11/27)

>  <Rbt.Parameter_File>
/export/apps/rDock/src/rDock_2013.1_src/data/scripts/dock_solv.prm

>  <Rbt.Receptor>
prm/pocket_docking_7.prm

>  <SCORE>
-16.4519

>  <SCORE.INTER>
-8.13882

>  <SCORE.INTER.CONST>
1

>  <SCORE.INTER.POLAR>
0

>  <SCORE.INTER.ROT>
13

>  <SCORE.INTER.SOLV>
23.9192

>  <SCORE.INTER.VDW>
-25.6656

>  <SCORE.INTER.norm>
-0.166098

>  <SCORE.INTRA>
-8.31311

>  <SCORE.INTRA.DIHEDRAL>
-23.0634

>  <SCORE.INTRA.DIHEDRAL.0>
34.5115

>  <SCORE.INTRA.POLAR>
0

>  <SCORE.INTRA.POLAR.0>
0

>  <SCORE.INTRA.REPUL>
0

>  <SCORE.INTRA.REPUL.0>
0

>  <SCORE.INTRA.SOLV>
1.62586

>  <SCORE.INTRA.SOLV.lig_0>
-122.812

>  <SCORE.INTRA.VDW>
2.40567

>  <SCORE.INTRA.VDW.0>
-7.46208

>  <SCORE.INTRA.norm>
-0.169655

>  <SCORE.RESTR>
0

>  <SCORE.RESTR.CAVITY>
0

>  <SCORE.RESTR.norm>
0

>  <SCORE.SYSTEM>
0

>  <SCORE.SYSTEM.CONST>
0

>  <SCORE.SYSTEM.DIHEDRAL>
0

>  <SCORE.SYSTEM.SOLV>
0

>  <SCORE.SYSTEM.norm>
0

>  <SCORE.heavy>
49

>  <SCORE.norm>
-0.335754

>  <RMSD>
9.367

$$$$
ligand
 OpenBabel11021811513D
libRbt.so/2013.1/901 2013/11/27
 49 52  0  0  0  0  0  0  0  0999 V2000
   28.1009    9.5214    8.4449 C   0  0  2  0  0  0  0  0  0  0  0  0
   27.0031    9.2874    7.6131 O   0  0  0  0  0  0  0  0  0  0  0  0
   27.9972    8.6162    9.7283 C   0  0  2  0  0  0  0  0  0  0  0  0
   27.9540    7.1559    9.3060 N   0  0  0  0  0  0  0  0  0  0  0  0
   24.3707    7.9429    1.4967 O   0  0  0  0  0  0  0  0  0  0  0  0
   26.7508    9.0004   10.5592 C   0  0  2  0  0  0  0  0  0  0  0  0
   23.6528   10.5731   -2.9850 N   0  0  0  0  0  0  0  0  0  0  0  0
   26.8074   10.4838   10.9568 C   0  0  2  0  0  0  0  0  0  0  0  0
   26.9145   11.4295    9.6864 C   0  0  2  0  0  0  0  0  0  0  0  0
   28.1268   10.9788    8.8695 O   0  0  0  0  0  0  0  0  0  0  0  0
   27.0274   12.9258   10.0987 C   0  0  0  0  0  0  0  0  0  0  0  0
   27.0716   13.8218    8.9991 N   0  0  0  0  0  0  0  0  0  0  0  0
   25.9128    9.4899    3.4211 C   0  0  2  0  0  0  0  0  0  0  0  0
   25.4112   10.0525    2.1332 N   0  0  0  0  0  0  0  0  0  0  0  0
   24.8594    9.9077    4.5578 C   0  0  0  0  0  0  0  0  0  0  0  0
   25.3012    9.3305    5.9542 C   0  0  2  0  0  0  0  0  0  0  0  0
   24.3543    9.7237    7.0082 N   0  0  0  0  0  0  0  0  0  0  0  0
   26.6966    9.8643    6.3353 C   0  0  2  0  0  0  0  0  0  0  0  0
   27.7599    9.4726    5.2313 C   0  0  2  0  0  0  0  0  0  0  0  0
   29.0527   10.0185    5.6897 O   0  0  0  0  0  0  0  0  0  0  0  0
   27.3188   10.1301    3.8261 C   0  0  1  0  0  0  0  0  0  0  0  0
   28.2701    9.7810    2.8707 O   0  0  0  0  0  0  0  0  0  0  0  0
   30.2199    9.7594    5.2065 C   0  0  1  0  0  0  0  0  0  0  0  0
   31.3298   10.8039    5.5254 C   0  0  2  0  0  0  0  0  0  0  0  0
   31.3461   11.7453    4.4991 O   0  0  0  0  0  0  0  0  0  0  0  0
   32.4975    9.9093    5.4608 C   0  0  1  0  0  0  0  0  0  0  0  0
   32.0997    8.5438    6.1015 C   0  0  2  0  0  0  0  0  0  0  0  0
   30.7826    8.4697    5.6136 O   0  0  0  0  0  0  0  0  0  0  0  0
   32.3122    8.3614    7.6050 C   0  0  0  0  0  0  0  0  0  0  0  0
   32.0400    7.0005    7.8815 O   0  0  0  0  0  0  0  0  0  0  0  0
   32.2331    8.8198    3.2776 C   0  0  2  0  0  0  0  0  0  0  0  0
   32.8579    9.7868    4.0112 O   0  0  0  0  0  0  0  0  0  0  0  0
   32.9246    7.4929    3.3878 C   0  0  1  0  0  0  0  0  0  0  0  0
   30.6364    9.9881   -0.7901 N   0  0  0  0  0  0  0  0  0  0  0  0
   25.0479   10.9481   -0.4065 O   0  0  0  0  0  0  0  0  0  0  0  0
   32.1821    6.4388    2.4781 C   0  0  2  0  0  0  0  0  0  0  0  0
   32.0849    6.8647    0.9721 C   0  0  1  0  0  0  0  0  0  0  0  0
   31.4081    8.1378    0.8911 C   0  0  1  0  0  0  0  0  0  0  0  0
   32.1031    9.1702    1.7585 O   0  0  0  0  0  0  0  0  0  0  0  0
   31.3256    8.6313   -0.6198 C   0  0  0  0  0  0  0  0  0  0  0  0
   34.2543    7.6023    2.9338 N   0  0  0  0  0  0  0  0  0  0  0  0
   26.7202    8.3583   11.5043 O   0  0  0  0  0  0  0  0  0  0  0  0
   24.1533    8.9673   -1.0669 C   0  0  0  0  0  0  0  0  0  0  0  0
   33.1499    6.9831    0.5605 O   0  0  0  0  0  0  0  0  0  0  0  0
   31.1030    6.3315    2.8620 O   0  0  0  0  0  0  0  0  0  0  0  0
   24.6342    9.1274    1.2448 C   0  0  0  0  0  0  0  0  0  0  0  0
   23.4299    9.4650   -2.1275 C   0  0  0  0  0  0  0  0  0  0  0  0
   24.1507    9.8832   -0.0992 C   0  0  1  0  0  0  0  0  0  0  0  0
   27.9280   10.7184   11.7732 F   0  0  0  0  0  0  0  0  0  0  0  0
  1  2  1  6  0  0  0
  1 10  1  0  0  0  0
  1  3  1  0  0  0  0
  3  4  1  6  0  0  0
  3  6  1  0  0  0  0
  5 46  2  0  0  0  0
  6 42  1  1  0  0  0
  6  8  1  0  0  0  0
  7 47  1  0  0  0  0
  8  9  1  0  0  0  0
  8 49  1  1  0  0  0
  9 10  1  0  0  0  0
  9 11  1  1  0  0  0
 11 12  1  0  0  0  0
 13 14  1  6  0  0  0
 13 15  1  0  0  0  0
 13 21  1  0  0  0  0
 14 46  1  0  0  0  0
 15 16  1  0  0  0  0
 16 17  1  1  0  0  0
 16 18  1  0  0  0  0
 18  2  1  1  0  0  0
 18 19  1  0  0  0  0
 19 20  1  1  0  0  0
 19 21  1  0  0  0  0
 21 22  1  6  0  0  0
 23 20  1  1  0  0  0
 23 24  1  0  0  0  0
 23 28  1  0  0  0  0
 24 25  1  6  0  0  0
 24 26  1  0  0  0  0
 26 27  1  0  0  0  0
 26 32  1  6  0  0  0
 27 28  1  0  0  0  0
 27 29  1  1  0  0  0
 29 30  1  0  0  0  0
 31 32  1  1  0  0  0
 31 33  1  0  0  0  0
 31 39  1  0  0  0  0
 33 36  1  0  0  0  0
 33 41  1  6  0  0  0
 34 40  1  0  0  0  0
 35 48  1  0  0  0  0
 36 37  1  0  0  0  0
 36 45  1  1  0  0  0
 37 38  1  0  0  0  0
 37 44  1  1  0  0  0
 38 39  1  0  0  0  0
 38 40  1  6  0  0  0
 43 47  1  0  0  0  0
 46 48  1  0  0  0  0
 48 43  1  6  0  0  0
M  END
>  <CHROM.1>
-178.66834310,-174.88915224,-177.59083038,-97.25123507,168.38122685,159.68951005
-87.20848802,-172.51726525,-85.53189647,-179.21573212,64.65559218,-75.96115540
-153.81026017,28.63245663,9.34632889,4.73731532,1.60116303,-0.23788347,1.46443790

>  <Name>
ligand

>  <RI>
0

>  <Rbt.Current_Directory>
/home/itssahil/PROJECTS/Mol_Feturizer/New_Systems/rnas/4PDQ

>  <Rbt.Executable>
rbdock ($Id: //depot/dev/client3/rdock/2013.1/src/exe/rbdock.cxx#4 $)

>  <Rbt.Library>
libRbt.so (2013.1, Build901 2013/11/27)

>  <Rbt.Parameter_File>
/export/apps/rDock/src/rDock_2013.1_src/data/scripts/dock_solv.prm

>  <Rbt.Receptor>
prm/pocket_docking_5.prm

>  <SCORE>
-18.4638

>  <SCORE.INTER>
-9.53054

>  <SCORE.INTER.CONST>
1

>  <SCORE.INTER.POLAR>
0

>  <SCORE.INTER.ROT>
13

>  <SCORE.INTER.SOLV>
16.6522

>  <SCORE.INTER.VDW>
-24.1711

>  <SCORE.INTER.norm>
-0.194501

>  <SCORE.INTRA>
-8.93329

>  <SCORE.INTRA.DIHEDRAL>
-22.239

>  <SCORE.INTRA.DIHEDRAL.0>
34.5115

>  <SCORE.INTRA.POLAR>
0

>  <SCORE.INTRA.POLAR.0>
0

>  <SCORE.INTRA.REPUL>
0

>  <SCORE.INTRA.REPUL.0>
0

>  <SCORE.INTRA.SOLV>
-3.14983

>  <SCORE.INTRA.SOLV.lig_0>
-122.812

>  <SCORE.INTRA.VDW>
3.76111

>  <SCORE.INTRA.VDW.0>
-7.46208

>  <SCORE.INTRA.norm>
-0.182312

>  <SCORE.RESTR>
0

>  <SCORE.RESTR.CAVITY>
0

>  <SCORE.RESTR.norm>
0

>  <SCORE.SYSTEM>
0

>  <SCORE.SYSTEM.CONST>
0

>  <SCORE.SYSTEM.DIHEDRAL>
0

>  <SCORE.SYSTEM.SOLV>
0

>  <SCORE.SYSTEM.norm>
0

>  <SCORE.heavy>
49

>  <SCORE.norm>
-0.376813

>  <RMSD>
9.372

$$$$
ligand
 OpenBabel11021811513D
libRbt.so/2013.1/901 2013/11/27
 49 52  0  0  0  0  0  0  0  0999 V2000
   28.2885   10.4485    4.1933 C   0  0  2  0  0  0  0  0  0  0  0  0
   27.4219   10.0618    3.1679 O   0  0  0  0  0  0  0  0  0  0  0  0
   28.3304    9.3324    5.3022 C   0  0  2  0  0  0  0  0  0  0  0  0
   28.7974    8.0268    4.6779 N   0  0  0  0  0  0  0  0  0  0  0  0
   26.1254   13.3743   -1.3724 O   0  0  0  0  0  0  0  0  0  0  0  0
   26.9406    9.1768    5.9626 C   0  0  2  0  0  0  0  0  0  0  0  0
   22.8563   14.4729   -3.5346 N   0  0  0  0  0  0  0  0  0  0  0  0
   26.4818   10.5125    6.5683 C   0  0  2  0  0  0  0  0  0  0  0  0
   26.4289   11.6652    5.4783 C   0  0  2  0  0  0  0  0  0  0  0  0
   27.8059   11.7459    4.8166 O   0  0  0  0  0  0  0  0  0  0  0  0
   26.0174   13.0268    6.1094 C   0  0  0  0  0  0  0  0  0  0  0  0
   24.6568   13.0861    6.5084 N   0  0  0  0  0  0  0  0  0  0  0  0
   26.6734   10.5304   -1.0774 C   0  0  2  0  0  0  0  0  0  0  0  0
   26.2085   11.1459   -2.3550 N   0  0  0  0  0  0  0  0  0  0  0  0
   25.4791   10.6911   -0.0171 C   0  0  0  0  0  0  0  0  0  0  0  0
   25.8778   10.0427    1.3609 C   0  0  2  0  0  0  0  0  0  0  0  0
   24.7991   10.2013    2.3473 N   0  0  0  0  0  0  0  0  0  0  0  0
   27.1467   10.7161    1.9206 C   0  0  2  0  0  0  0  0  0  0  0  0
   28.3444   10.5794    0.8959 C   0  0  2  0  0  0  0  0  0  0  0  0
   29.5039   11.2436    1.5234 O   0  0  0  0  0  0  0  0  0  0  0  0
   27.9358   11.3080   -0.4838 C   0  0  1  0  0  0  0  0  0  0  0  0
   29.0043   11.1836   -1.3683 O   0  0  0  0  0  0  0  0  0  0  0  0
   30.6402   10.7089    1.8159 C   0  0  1  0  0  0  0  0  0  0  0  0
   31.8974   11.5496    1.4455 C   0  0  2  0  0  0  0  0  0  0  0  0
   32.2966   11.1885    0.1609 O   0  0  0  0  0  0  0  0  0  0  0  0
   32.8193   11.0273    2.4679 C   0  0  1  0  0  0  0  0  0  0  0  0
   32.0170   10.8315    3.7913 C   0  0  2  0  0  0  0  0  0  0  0  0
   30.8143   10.3664    3.2295 O   0  0  0  0  0  0  0  0  0  0  0  0
   31.9379   12.0048    4.7691 C   0  0  0  0  0  0  0  0  0  0  0  0
   30.9249   11.6762    5.7011 O   0  0  0  0  0  0  0  0  0  0  0  0
   34.4122    9.8122    1.0503 C   0  0  2  0  0  0  0  0  0  0  0  0
   33.3681    9.7419    1.9268 O   0  0  0  0  0  0  0  0  0  0  0  0
   34.8077    8.4601    0.5341 C   0  0  1  0  0  0  0  0  0  0  0  0
   39.2763   11.6428    0.5177 N   0  0  0  0  0  0  0  0  0  0  0  0
   26.4852   12.8648   -4.7728 O   0  0  0  0  0  0  0  0  0  0  0  0
   36.0480    8.6103   -0.4298 C   0  0  2  0  0  0  0  0  0  0  0  0
   37.2837    9.3071    0.2382 C   0  0  1  0  0  0  0  0  0  0  0  0
   36.8813   10.6086    0.7176 C   0  0  1  0  0  0  0  0  0  0  0  0
   35.6885   10.4917    1.6475 O   0  0  0  0  0  0  0  0  0  0  0  0
   38.0961   11.3362    1.4441 C   0  0  0  0  0  0  0  0  0  0  0  0
   35.1854    7.6260    1.6056 N   0  0  0  0  0  0  0  0  0  0  0  0
   27.0069    8.3912    6.7902 O   0  0  0  0  0  0  0  0  0  0  0  0
   24.3569   12.4824   -4.0771 C   0  0  0  0  0  0  0  0  0  0  0  0
   37.6190    8.6693    1.1317 O   0  0  0  0  0  0  0  0  0  0  0  0
   35.7342    9.2722   -1.3167 O   0  0  0  0  0  0  0  0  0  0  0  0
   25.9651   12.6256   -2.3468 C   0  0  0  0  0  0  0  0  0  0  0  0
   23.3153   13.1328   -3.4543 C   0  0  0  0  0  0  0  0  0  0  0  0
   25.4807   13.1421   -3.7994 C   0  0  1  0  0  0  0  0  0  0  0  0
   27.3714   10.9093    7.5825 F   0  0  0  0  0  0  0  0  0  0  0  0
  1  2  1  6  0  0  0
  1 10  1  0  0  0  0
  1  3  1  0  0  0  0
  3  4  1  6  0  0  0
  3  6  1  0  0  0  0
  5 46  2  0  0  0  0
  6 42  1  1  0  0  0
  6  8  1  0  0  0  0
  7 47  1  0  0  0  0
  8  9  1  0  0  0  0
  8 49  1  1  0  0  0
  9 10  1  0  0  0  0
  9 11  1  1  0  0  0
 11 12  1  0  0  0  0
 13 14  1  6  0  0  0
 13 15  1  0  0  0  0
 13 21  1  0  0  0  0
 14 46  1  0  0  0  0
 15 16  1  0  0  0  0
 16 17  1  1  0  0  0
 16 18  1  0  0  0  0
 18  2  1  1  0  0  0
 18 19  1  0  0  0  0
 19 20  1  1  0  0  0
 19 21  1  0  0  0  0
 21 22  1  6  0  0  0
 23 20  1  1  0  0  0
 23 24  1  0  0  0  0
 23 28  1  0  0  0  0
 24 25  1  6  0  0  0
 24 26  1  0  0  0  0
 26 27  1  0  0  0  0
 26 32  1  6  0  0  0
 27 28  1  0  0  0  0
 27 29  1  6  0  0  0
 29 30  1  0  0  0  0
 31 32  1  1  0  0  0
 31 33  1  0  0  0  0
 31 39  1  0  0  0  0
 33 36  1  0  0  0  0
 33 41  1  1  0  0  0
 34 40  1  0  0  0  0
 35 48  1  0  0  0  0
 36 37  1  0  0  0  0
 36 45  1  6  0  0  0
 37 38  1  0  0  0  0
 37 44  1  1  0  0  0
 38 39  1  0  0  0  0
 38 40  1  1  0  0  0
 43 47  1  0  0  0  0
 46 48  1  0  0  0  0
 48 43  1  6  0  0  0
M  END
>  <CHROM.1>
-175.20106753,-166.24299269,-70.90093557,65.35042960,120.34964120,135.69575259
82.03254985,166.81164012,-176.84414920,63.91506555,56.74877736,-157.89799497
118.59487164,29.78992098,10.84112048,1.65423337,3.05932731,0.17613369,-1.40541635

>  <Name>
ligand

>  <RI>
0

>  <Rbt.Current_Directory>
/home/itssahil/PROJECTS/Mol_Feturizer/New_Systems/rnas/4PDQ

>  <Rbt.Executable>
rbdock ($Id: //depot/dev/client3/rdock/2013.1/src/exe/rbdock.cxx#4 $)

>  <Rbt.Library>
libRbt.so (2013.1, Build901 2013/11/27)

>  <Rbt.Parameter_File>
/export/apps/rDock/src/rDock_2013.1_src/data/scripts/dock_solv.prm

>  <Rbt.Receptor>
prm/pocket_docking_3.prm

>  <SCORE>
1.38099

>  <SCORE.INTER>
6.4129

>  <SCORE.INTER.CONST>
1

>  <SCORE.INTER.POLAR>
0

>  <SCORE.INTER.ROT>
13

>  <SCORE.INTER.SOLV>
19.272

>  <SCORE.INTER.VDW>
-14.4154

>  <SCORE.INTER.norm>
0.130875

>  <SCORE.INTRA>
-5.11366

>  <SCORE.INTRA.DIHEDRAL>
-14.5574

>  <SCORE.INTRA.DIHEDRAL.0>
34.5115

>  <SCORE.INTRA.POLAR>
0

>  <SCORE.INTRA.POLAR.0>
0

>  <SCORE.INTRA.REPUL>
0

>  <SCORE.INTRA.REPUL.0>
0

>  <SCORE.INTRA.SOLV>
-0.473356

>  <SCORE.INTRA.SOLV.lig_0>
-122.812

>  <SCORE.INTRA.VDW>
2.40174

>  <SCORE.INTRA.VDW.0>
-7.46208

>  <SCORE.INTRA.norm>
-0.10436

>  <SCORE.RESTR>
0.0817559

>  <SCORE.RESTR.CAVITY>
0.0817559

>  <SCORE.RESTR.norm>
0.00166849

>  <SCORE.SYSTEM>
0

>  <SCORE.SYSTEM.CONST>
0

>  <SCORE.SYSTEM.DIHEDRAL>
0

>  <SCORE.SYSTEM.SOLV>
0

>  <SCORE.SYSTEM.norm>
0

>  <SCORE.heavy>
49

>  <SCORE.norm>
0.0281834

>  <RMSD>
9.376

$$$$
ligand
 OpenBabel11021811513D
libRbt.so/2013.1/901 2013/11/27
 49 52  0  0  0  0  0  0  0  0999 V2000
   24.3094    9.2290    0.3858 C   0  0  2  0  0  0  0  0  0  0  0  0
   25.1806    8.1536    0.1950 O   0  0  0  0  0  0  0  0  0  0  0  0
   24.1985   10.0647   -0.9433 C   0  0  2  0  0  0  0  0  0  0  0  0
   23.6916    9.1632   -2.0581 N   0  0  0  0  0  0  0  0  0  0  0  0
   28.7685    7.5057    5.9853 O   0  0  0  0  0  0  0  0  0  0  0  0
   25.5666   10.6905   -1.3018 C   0  0  2  0  0  0  0  0  0  0  0  0
   26.8083    3.5302    9.7404 N   0  0  0  0  0  0  0  0  0  0  0  0
   26.0670   11.5804   -0.1531 C   0  0  2  0  0  0  0  0  0  0  0  0
   26.1899   10.7712    1.2069 C   0  0  2  0  0  0  0  0  0  0  0  0
   24.8316   10.1279    1.4921 O   0  0  0  0  0  0  0  0  0  0  0  0
   26.6436   11.6910    2.3773 C   0  0  0  0  0  0  0  0  0  0  0  0
   27.9296   12.2620    2.1925 N   0  0  0  0  0  0  0  0  0  0  0  0
   26.7374    6.8195    4.0159 C   0  0  2  0  0  0  0  0  0  0  0  0
   27.1713    5.8916    5.1012 N   0  0  0  0  0  0  0  0  0  0  0  0
   25.3185    6.2895    3.4846 C   0  0  0  0  0  0  0  0  0  0  0  0
   24.7722    7.2308    2.3471 C   0  0  2  0  0  0  0  0  0  0  0  0
   23.4816    6.7441    1.8378 N   0  0  0  0  0  0  0  0  0  0  0  0
   25.7677    7.2803    1.1709 C   0  0  2  0  0  0  0  0  0  0  0  0
   27.1805    7.7956    1.6623 C   0  0  2  0  0  0  0  0  0  0  0  0
   28.0518    7.8136    0.4707 O   0  0  0  0  0  0  0  0  0  0  0  0
   27.7468    6.7788    2.7789 C   0  0  1  0  0  0  0  0  0  0  0  0
   28.9924    7.2447    3.1923 O   0  0  0  0  0  0  0  0  0  0  0  0
   29.3017    8.1282    0.4276 C   0  0  1  0  0  0  0  0  0  0  0  0
   30.0108    7.8919   -0.9383 C   0  0  2  0  0  0  0  0  0  0  0  0
   30.5510    6.6081   -0.9292 O   0  0  0  0  0  0  0  0  0  0  0  0
   31.0564    8.9222   -0.8235 C   0  0  1  0  0  0  0  0  0  0  0  0
   30.4267   10.1807   -0.1503 C   0  0  2  0  0  0  0  0  0  0  0  0
   29.5989    9.5199    0.7751 O   0  0  0  0  0  0  0  0  0  0  0  0
   29.7847   11.2373   -1.0506 C   0  0  0  0  0  0  0  0  0  0  0  0
   30.8099   11.7034   -1.9077 O   0  0  0  0  0  0  0  0  0  0  0  0
   33.4178    8.3190   -0.5350 C   0  0  2  0  0  0  0  0  0  0  0  0
   32.1588    8.3183   -0.0074 O   0  0  0  0  0  0  0  0  0  0  0  0
   34.0449    9.6815   -0.4963 C   0  0  1  0  0  0  0  0  0  0  0  0
   33.8679    8.0202   -5.0594 N   0  0  0  0  0  0  0  0  0  0  0  0
   29.7520    5.6713    7.8771 O   0  0  0  0  0  0  0  0  0  0  0  0
   35.4725    9.6196   -1.1659 C   0  0  2  0  0  0  0  0  0  0  0  0
   35.4539    9.0840   -2.6395 C   0  0  1  0  0  0  0  0  0  0  0  0
   34.8557    7.7697   -2.6496 C   0  0  1  0  0  0  0  0  0  0  0  0
   33.4805    7.8020   -2.0101 O   0  0  0  0  0  0  0  0  0  0  0  0
   34.7758    7.2039   -4.1351 C   0  0  0  0  0  0  0  0  0  0  0  0
   33.2590   10.5956   -1.2265 N   0  0  0  0  0  0  0  0  0  0  0  0
   25.4508   11.3242   -2.2459 O   0  0  0  0  0  0  0  0  0  0  0  0
   27.5278    5.2194    7.9691 C   0  0  0  0  0  0  0  0  0  0  0  0
   34.8084    9.7911   -3.2728 O   0  0  0  0  0  0  0  0  0  0  0  0
   36.1222    8.8912   -0.5572 O   0  0  0  0  0  0  0  0  0  0  0  0
   28.2323    6.3896    6.0366 C   0  0  0  0  0  0  0  0  0  0  0  0
   27.6526    4.0903    8.7473 C   0  0  0  0  0  0  0  0  0  0  0  0
   28.5836    5.2811    7.1588 C   0  0  1  0  0  0  0  0  0  0  0  0
   25.1734   12.6467    0.0509 F   0  0  0  0  0  0  0  0  0  0  0  0
  1  2  1  6  0  0  0
  1 10  1  0  0  0  0
  1  3  1  0  0  0  0
  3  4  1  6  0  0  0
  3  6  1  0  0  0  0
  5 46  2  0  0  0  0
  6 42  1  6  0  0  0
  6  8  1  0  0  0  0
  7 47  1  0  0  0  0
  8  9  1  0  0  0  0
  8 49  1  1  0  0  0
  9 10  1  0  0  0  0
  9 11  1  1  0  0  0
 11 12  1  0  0  0  0
 13 14  1  1  0  0  0
 13 15  1  0  0  0  0
 13 21  1  0  0  0  0
 14 46  1  0  0  0  0
 15 16  1  0  0  0  0
 16 17  1  6  0  0  0
 16 18  1  0  0  0  0
 18  2  1  6  0  0  0
 18 19  1  0  0  0  0
 19 20  1  6  0  0  0
 19 21  1  0  0  0  0
 21 22  1  1  0  0  0
 23 20  1  6  0  0  0
 23 24  1  0  0  0  0
 23 28  1  0  0  0  0
 24 25  1  1  0  0  0
 24 26  1  0  0  0  0
 26 27  1  0  0  0  0
 26 32  1  1  0  0  0
 27 28  1  0  0  0  0
 27 29  1  6  0  0  0
 29 30  1  0  0  0  0
 31 32  1  6  0  0  0
 31 33  1  0  0  0  0
 31 39  1  0  0  0  0
 33 36  1  0  0  0  0
 33 41  1  6  0  0  0
 34 40  1  0  0  0  0
 35 48  1  0  0  0  0
 36 37  1  0  0  0  0
 36 45  1  1  0  0  0
 37 38  1  0  0  0  0
 37 44  1  6  0  0  0
 38 39  1  0  0  0  0
 38 40  1  6  0  0  0
 43 47  1  0  0  0  0
 46 48  1  0  0  0  0
 48 43  1  1  0  0  0
M  END
>  <CHROM.1>
167.54624615,28.64084148,-62.41600221,-161.62612137,-177.61700287,172.86830621
125.54805002,-60.20569183,74.39642778,-63.89727790,-178.22680906,-74.00768219
-11.50537839,29.00970194,8.49656464,1.04879857,2.35048905,-0.22001321,2.11014006

>  <Name>
ligand

>  <RI>
0

>  <Rbt.Current_Directory>
/home/itssahil/PROJECTS/Mol_Feturizer/New_Systems/rnas/4PDQ

>  <Rbt.Executable>
rbdock ($Id: //depot/dev/client3/rdock/2013.1/src/exe/rbdock.cxx#4 $)

>  <Rbt.Library>
libRbt.so (2013.1, Build901 2013/11/27)

>  <Rbt.Parameter_File>
/export/apps/rDock/src/rDock_2013.1_src/data/scripts/dock_solv.prm

>  <Rbt.Receptor>
prm/pocket_docking_6.prm

>  <SCORE>
-8.94698

>  <SCORE.INTER>
-2.28801

>  <SCORE.INTER.CONST>
1

>  <SCORE.INTER.POLAR>
0

>  <SCORE.INTER.ROT>
13

>  <SCORE.INTER.SOLV>
27.0232

>  <SCORE.INTER.VDW>
-22.7997

>  <SCORE.INTER.norm>
-0.0466942

>  <SCORE.INTRA>
-6.65897

>  <SCORE.INTRA.DIHEDRAL>
-19.5947

>  <SCORE.INTRA.DIHEDRAL.0>
34.5115

>  <SCORE.INTRA.POLAR>
0

>  <SCORE.INTRA.POLAR.0>
0

>  <SCORE.INTRA.REPUL>
0

>  <SCORE.INTRA.REPUL.0>
0

>  <SCORE.INTRA.SOLV>
2.9496

>  <SCORE.INTRA.SOLV.lig_0>
-122.812

>  <SCORE.INTRA.VDW>
1.66357

>  <SCORE.INTRA.VDW.0>
-7.46208

>  <SCORE.INTRA.norm>
-0.135897

>  <SCORE.RESTR>
0

>  <SCORE.RESTR.CAVITY>
0

>  <SCORE.RESTR.norm>
0

>  <SCORE.SYSTEM>
0

>  <SCORE.SYSTEM.CONST>
0

>  <SCORE.SYSTEM.DIHEDRAL>
0

>  <SCORE.SYSTEM.SOLV>
0

>  <SCORE.SYSTEM.norm>
0

>  <SCORE.heavy>
49

>  <SCORE.norm>
-0.182592

>  <RMSD>
9.387

$$$$
ligand
 OpenBabel11021811513D
libRbt.so/2013.1/901 2013/11/27
 49 52  0  0  0  0  0  0  0  0999 V2000
   26.3857    8.2836    7.3192 C   0  0  2  0  0  0  0  0  0  0  0  0
   27.1070    7.2008    6.8101 O   0  0  0  0  0  0  0  0  0  0  0  0
   27.0801    9.6307    6.8947 C   0  0  2  0  0  0  0  0  0  0  0  0
   27.1431    9.7024    5.3770 N   0  0  0  0  0  0  0  0  0  0  0  0
   27.2383    6.2153    1.1547 O   0  0  0  0  0  0  0  0  0  0  0  0
   28.4896    9.7317    7.5233 C   0  0  2  0  0  0  0  0  0  0  0  0
   29.5097    5.4908   -0.7257 N   0  0  0  0  0  0  0  0  0  0  0  0
   28.4020    9.6369    9.0547 C   0  0  2  0  0  0  0  0  0  0  0  0
   27.7044    8.2897    9.5216 C   0  0  2  0  0  0  0  0  0  0  0  0
   26.3399    8.2080    8.8347 O   0  0  0  0  0  0  0  0  0  0  0  0
   27.5692    8.2261   11.0706 C   0  0  0  0  0  0  0  0  0  0  0  0
   26.9497    7.0402   11.5439 N   0  0  0  0  0  0  0  0  0  0  0  0
   26.7292    4.4921    3.4452 C   0  0  2  0  0  0  0  0  0  0  0  0
   26.6266    4.0254    2.0314 N   0  0  0  0  0  0  0  0  0  0  0  0
   25.7344    5.7422    3.6002 C   0  0  0  0  0  0  0  0  0  0  0  0
   25.7616    6.2851    5.0776 C   0  0  2  0  0  0  0  0  0  0  0  0
   24.8690    7.4439    5.2276 N   0  0  0  0  0  0  0  0  0  0  0  0
   27.1897    6.7232    5.4593 C   0  0  2  0  0  0  0  0  0  0  0  0
   28.1981    5.5130    5.3130 C   0  0  2  0  0  0  0  0  0  0  0  0
   29.5243    6.0294    5.7054 O   0  0  0  0  0  0  0  0  0  0  0  0
   28.1998    5.0185    3.7777 C   0  0  1  0  0  0  0  0  0  0  0  0
   29.0980    3.9598    3.6682 O   0  0  0  0  0  0  0  0  0  0  0  0
   30.2872    6.8107    5.0195 C   0  0  1  0  0  0  0  0  0  0  0  0
   29.8825    8.3143    5.0126 C   0  0  2  0  0  0  0  0  0  0  0  0
   29.0389    8.5305    3.9256 O   0  0  0  0  0  0  0  0  0  0  0  0
   31.2156    8.8989    4.7906 C   0  0  1  0  0  0  0  0  0  0  0  0
   32.2513    8.0750    5.6165 C   0  0  2  0  0  0  0  0  0  0  0  0
   31.6974    6.7978    5.4154 O   0  0  0  0  0  0  0  0  0  0  0  0
   32.5368    8.5075    7.0554 C   0  0  0  0  0  0  0  0  0  0  0  0
   31.3315    8.3184    7.7725 O   0  0  0  0  0  0  0  0  0  0  0  0
   32.6545    9.3169    2.8468 C   0  0  2  0  0  0  0  0  0  0  0  0
   31.4668    8.8330    3.3145 O   0  0  0  0  0  0  0  0  0  0  0  0
   32.7738   10.8003    3.0376 C   0  0  1  0  0  0  0  0  0  0  0  0
   34.1747    7.6038   -1.0355 N   0  0  0  0  0  0  0  0  0  0  0  0
   25.4516    3.8840   -0.6964 O   0  0  0  0  0  0  0  0  0  0  0  0
   34.1430   11.2974    2.4307 C   0  0  2  0  0  0  0  0  0  0  0  0
   34.3266   10.9394    0.9152 C   0  0  1  0  0  0  0  0  0  0  0  0
   34.2176    9.5080    0.7584 C   0  0  1  0  0  0  0  0  0  0  0  0
   32.9081    9.0041    1.3352 O   0  0  0  0  0  0  0  0  0  0  0  0
   34.3543    9.1021   -0.7744 C   0  0  0  0  0  0  0  0  0  0  0  0
   31.7296   11.4599    2.3587 N   0  0  0  0  0  0  0  0  0  0  0  0
   28.9558   10.7343    7.2343 O   0  0  0  0  0  0  0  0  0  0  0  0
   27.0485    5.3470   -1.3816 C   0  0  0  0  0  0  0  0  0  0  0  0
   33.4844   11.4437    0.3201 O   0  0  0  0  0  0  0  0  0  0  0  0
   34.9968   10.7771    2.9995 O   0  0  0  0  0  0  0  0  0  0  0  0
   26.9157    5.0346    0.9605 C   0  0  0  0  0  0  0  0  0  0  0  0
   28.4068    5.3494   -1.6070 C   0  0  0  0  0  0  0  0  0  0  0  0
   26.7763    4.3774   -0.5092 C   0  0  1  0  0  0  0  0  0  0  0  0
   27.6540   10.7153    9.5593 F   0  0  0  0  0  0  0  0  0  0  0  0
  1  2  1  1  0  0  0
  1 10  1  0  0  0  0
  1  3  1  0  0  0  0
  3  4  1  6  0  0  0
  3  6  1  0  0  0  0
  5 46  2  0  0  0  0
  6 42  1  1  0  0  0
  6  8  1  0  0  0  0
  7 47  1  0  0  0  0
  8  9  1  0  0  0  0
  8 49  1  6  0  0  0
  9 10  1  0  0  0  0
  9 11  1  1  0  0  0
 11 12  1  0  0  0  0
 13 14  1  6  0  0  0
 13 15  1  0  0  0  0
 13 21  1  0  0  0  0
 14 46  1  0  0  0  0
 15 16  1  0  0  0  0
 16 17  1  6  0  0  0
 16 18  1  0  0  0  0
 18  2  1  1  0  0  0
 18 19  1  0  0  0  0
 19 20  1  6  0  0  0
 19 21  1  0  0  0  0
 21 22  1  1  0  0  0
 23 20  1  1  0  0  0
 23 24  1  0  0  0  0
 23 28  1  0  0  0  0
 24 25  1  6  0  0  0
 24 26  1  0  0  0  0
 26 27  1  0  0  0  0
 26 32  1  6  0  0  0
 27 28  1  0  0  0  0
 27 29  1  1  0  0  0
 29 30  1  0  0  0  0
 31 32  1  6  0  0  0
 31 33  1  0  0  0  0
 31 39  1  0  0  0  0
 33 36  1  0  0  0  0
 33 41  1  6  0  0  0
 34 40  1  0  0  0  0
 35 48  1  0  0  0  0
 36 37  1  0  0  0  0
 36 45  1  1  0  0  0
 37 38  1  0  0  0  0
 37 44  1  6  0  0  0
 38 39  1  0  0  0  0
 38 40  1  6  0  0  0
 43 47  1  0  0  0  0
 46 48  1  0  0  0  0
 48 43  1  6  0  0  0
M  END
>  <CHROM.1>
-73.52808957,-62.83884342,179.95673430,56.70045284,-74.41036449,77.32527302
-179.83331301,64.89436084,-66.14593633,-176.90729939,-57.48475842,-152.10637854
-121.02896486,29.44683290,7.83176039,4.20242331,2.26044516,0.58494021,1.19167188

>  <Name>
ligand

>  <RI>
0

>  <Rbt.Current_Directory>
/home/itssahil/PROJECTS/Mol_Feturizer/New_Systems/rnas/4PDQ

>  <Rbt.Executable>
rbdock ($Id: //depot/dev/client3/rdock/2013.1/src/exe/rbdock.cxx#4 $)

>  <Rbt.Library>
libRbt.so (2013.1, Build901 2013/11/27)

>  <Rbt.Parameter_File>
/export/apps/rDock/src/rDock_2013.1_src/data/scripts/dock_solv.prm

>  <Rbt.Receptor>
prm/pocket_docking_7.prm

>  <SCORE>
-6.95642

>  <SCORE.INTER>
0.559406

>  <SCORE.INTER.CONST>
1

>  <SCORE.INTER.POLAR>
0

>  <SCORE.INTER.ROT>
13

>  <SCORE.INTER.SOLV>
9.69839

>  <SCORE.INTER.VDW>
-15.1265

>  <SCORE.INTER.norm>
0.0114164

>  <SCORE.INTRA>
-7.51582

>  <SCORE.INTRA.DIHEDRAL>
-27.7502

>  <SCORE.INTRA.DIHEDRAL.0>
34.5115

>  <SCORE.INTRA.POLAR>
0

>  <SCORE.INTRA.POLAR.0>
0

>  <SCORE.INTRA.REPUL>
0.153958

>  <SCORE.INTRA.REPUL.0>
0

>  <SCORE.INTRA.SOLV>
6.04417

>  <SCORE.INTRA.SOLV.lig_0>
-122.812

>  <SCORE.INTRA.VDW>
2.56738

>  <SCORE.INTRA.VDW.0>
-7.46208

>  <SCORE.INTRA.norm>
-0.153384

>  <SCORE.RESTR>
0

>  <SCORE.RESTR.CAVITY>
0

>  <SCORE.RESTR.norm>
0

>  <SCORE.SYSTEM>
0

>  <SCORE.SYSTEM.CONST>
0

>  <SCORE.SYSTEM.DIHEDRAL>
0

>  <SCORE.SYSTEM.SOLV>
0

>  <SCORE.SYSTEM.norm>
0

>  <SCORE.heavy>
49

>  <SCORE.norm>
-0.141968

>  <RMSD>
9.432

$$$$
ligand
 OpenBabel11021811513D
libRbt.so/2013.1/901 2013/11/27
 49 52  0  0  0  0  0  0  0  0999 V2000
   25.0976    9.9198    3.9353 C   0  0  2  0  0  0  0  0  0  0  0  0
   26.1786   10.3061    4.7317 O   0  0  0  0  0  0  0  0  0  0  0  0
   25.1431    8.3648    3.6964 C   0  0  2  0  0  0  0  0  0  0  0  0
   25.0933    7.6526    5.0391 N   0  0  0  0  0  0  0  0  0  0  0  0
   25.5078   12.6553   10.9233 O   0  0  0  0  0  0  0  0  0  0  0  0
   26.4113    7.9790    2.8997 C   0  0  2  0  0  0  0  0  0  0  0  0
   25.1502   10.5265   15.4517 N   0  0  0  0  0  0  0  0  0  0  0  0
   26.4491    8.7256    1.5570 C   0  0  2  0  0  0  0  0  0  0  0  0
   26.4029   10.2995    1.7577 C   0  0  2  0  0  0  0  0  0  0  0  0
   25.1645   10.6276    2.5939 O   0  0  0  0  0  0  0  0  0  0  0  0
   26.3853   11.0470    0.3930 C   0  0  0  0  0  0  0  0  0  0  0  0
   26.3283   12.4599    0.5137 N   0  0  0  0  0  0  0  0  0  0  0  0
   26.8956   11.0303    8.9465 C   0  0  2  0  0  0  0  0  0  0  0  0
   26.9728   10.7756   10.4149 N   0  0  0  0  0  0  0  0  0  0  0  0
   25.4781   10.4671    8.4464 C   0  0  0  0  0  0  0  0  0  0  0  0
   25.3018   10.7182    6.9023 C   0  0  2  0  0  0  0  0  0  0  0  0
   24.0149   10.1883    6.4278 N   0  0  0  0  0  0  0  0  0  0  0  0
   26.4302   10.0217    6.1158 C   0  0  2  0  0  0  0  0  0  0  0  0
   27.8438   10.5521    6.5883 C   0  0  2  0  0  0  0  0  0  0  0  0
   28.8473    9.8354    5.7767 O   0  0  0  0  0  0  0  0  0  0  0  0
   28.0258   10.2242    8.1570 C   0  0  1  0  0  0  0  0  0  0  0  0
   29.2774   10.6910    8.5513 O   0  0  0  0  0  0  0  0  0  0  0  0
   29.3543   10.2174    4.6542 C   0  0  1  0  0  0  0  0  0  0  0  0
   29.8491   11.6929    4.6041 C   0  0  2  0  0  0  0  0  0  0  0  0
   28.7960   12.4877    4.1576 O   0  0  0  0  0  0  0  0  0  0  0  0
   30.8895   11.5402    3.5735 C   0  0  1  0  0  0  0  0  0  0  0  0
   31.6125   10.1784    3.8108 C   0  0  2  0  0  0  0  0  0  0  0  0
   30.4904    9.4189    4.1880 O   0  0  0  0  0  0  0  0  0  0  0  0
   32.8291   10.1577    4.7374 C   0  0  0  0  0  0  0  0  0  0  0  0
   33.3020    8.8239    4.7404 O   0  0  0  0  0  0  0  0  0  0  0  0
   30.9543   11.7035    1.1255 C   0  0  2  0  0  0  0  0  0  0  0  0
   30.1879   11.6015    2.2505 O   0  0  0  0  0  0  0  0  0  0  0  0
   30.1381   11.5748   -0.1268 C   0  0  1  0  0  0  0  0  0  0  0  0
   35.1953    9.7369   -1.2061 N   0  0  0  0  0  0  0  0  0  0  0  0
   27.7515   11.3609   13.2300 O   0  0  0  0  0  0  0  0  0  0  0  0
   31.0909   11.6504   -1.3824 C   0  0  2  0  0  0  0  0  0  0  0  0
   32.2285   10.5711   -1.3753 C   0  0  1  0  0  0  0  0  0  0  0  0
   33.0050   10.7213   -0.1670 C   0  0  1  0  0  0  0  0  0  0  0  0
   32.1110   10.6525    1.0565 O   0  0  0  0  0  0  0  0  0  0  0  0
   34.1471    9.6151   -0.0963 C   0  0  0  0  0  0  0  0  0  0  0  0
   29.4830   10.3271   -0.1499 N   0  0  0  0  0  0  0  0  0  0  0  0
   26.4006    6.8530    2.7041 O   0  0  0  0  0  0  0  0  0  0  0  0
   25.6530   12.1646   13.5616 C   0  0  0  0  0  0  0  0  0  0  0  0
   31.7408    9.5320   -1.3770 O   0  0  0  0  0  0  0  0  0  0  0  0
   31.6091   12.6774   -1.3774 O   0  0  0  0  0  0  0  0  0  0  0  0
   26.2038   11.7043   11.3065 C   0  0  0  0  0  0  0  0  0  0  0  0
   25.6157   11.7333   14.8688 C   0  0  0  0  0  0  0  0  0  0  0  0
   26.3761   11.2929   12.8598 C   0  0  1  0  0  0  0  0  0  0  0  0
   25.3455    8.3519    0.7699 F   0  0  0  0  0  0  0  0  0  0  0  0
  1  2  1  1  0  0  0
  1 10  1  0  0  0  0
  1  3  1  0  0  0  0
  3  4  1  1  0  0  0
  3  6  1  0  0  0  0
  5 46  2  0  0  0  0
  6 42  1  6  0  0  0
  6  8  1  0  0  0  0
  7 47  1  0  0  0  0
  8  9  1  0  0  0  0
  8 49  1  6  0  0  0
  9 10  1  0  0  0  0
  9 11  1  6  0  0  0
 11 12  1  0  0  0  0
 13 14  1  1  0  0  0
 13 15  1  0  0  0  0
 13 21  1  0  0  0  0
 14 46  1  0  0  0  0
 15 16  1  0  0  0  0
 16 17  1  6  0  0  0
 16 18  1  0  0  0  0
 18  2  1  6  0  0  0
 18 19  1  0  0  0  0
 19 20  1  6  0  0  0
 19 21  1  0  0  0  0
 21 22  1  1  0  0  0
 23 20  1  1  0  0  0
 23 24  1  0  0  0  0
 23 28  1  0  0  0  0
 24 25  1  6  0  0  0
 24 26  1  0  0  0  0
 26 27  1  0  0  0  0
 26 32  1  6  0  0  0
 27 28  1  0  0  0  0
 27 29  1  1  0  0  0
 29 30  1  0  0  0  0
 31 32  1  1  0  0  0
 31 33  1  0  0  0  0
 31 39  1  0  0  0  0
 33 36  1  0  0  0  0
 33 41  1  1  0  0  0
 34 40  1  0  0  0  0
 35 48  1  0  0  0  0
 36 37  1  0  0  0  0
 36 45  1  1  0  0  0
 37 38  1  0  0  0  0
 37 44  1  1  0  0  0
 38 39  1  0  0  0  0
 38 40  1  1  0  0  0
 43 47  1  0  0  0  0
 46 48  1  0  0  0  0
 48 43  1  1  0  0  0
M  END
>  <CHROM.1>
-68.55569262,-64.31433781,179.30680412,-77.62475267,91.62887567,47.35719998
169.47879540,-178.37550124,172.53007505,64.29461640,-58.75726102,-69.19854054
-120.46983299,28.39332467,10.46228907,4.67466416,1.98931316,0.16322222,1.44476926

>  <Name>
ligand

>  <RI>
0

>  <Rbt.Current_Directory>
/home/itssahil/PROJECTS/Mol_Feturizer/New_Systems/rnas/4PDQ

>  <Rbt.Executable>
rbdock ($Id: //depot/dev/client3/rdock/2013.1/src/exe/rbdock.cxx#4 $)

>  <Rbt.Library>
libRbt.so (2013.1, Build901 2013/11/27)

>  <Rbt.Parameter_File>
/export/apps/rDock/src/rDock_2013.1_src/data/scripts/dock_solv.prm

>  <Rbt.Receptor>
prm/pocket_docking_8.prm

>  <SCORE>
-10.3823

>  <SCORE.INTER>
-1.43479

>  <SCORE.INTER.CONST>
1

>  <SCORE.INTER.POLAR>
0

>  <SCORE.INTER.ROT>
13

>  <SCORE.INTER.SOLV>
23.3178

>  <SCORE.INTER.VDW>
-20.9958

>  <SCORE.INTER.norm>
-0.0292814

>  <SCORE.INTRA>
-8.94753

>  <SCORE.INTRA.DIHEDRAL>
-27.1039

>  <SCORE.INTRA.DIHEDRAL.0>
34.5115

>  <SCORE.INTRA.POLAR>
0

>  <SCORE.INTRA.POLAR.0>
0

>  <SCORE.INTRA.REPUL>
0

>  <SCORE.INTRA.REPUL.0>
0

>  <SCORE.INTRA.SOLV>
3.22407

>  <SCORE.INTRA.SOLV.lig_0>
-122.812

>  <SCORE.INTRA.VDW>
2.9924

>  <SCORE.INTRA.VDW.0>
-7.46208

>  <SCORE.INTRA.norm>
-0.182603

>  <SCORE.RESTR>
0

>  <SCORE.RESTR.CAVITY>
0

>  <SCORE.RESTR.norm>
0

>  <SCORE.SYSTEM>
0

>  <SCORE.SYSTEM.CONST>
0

>  <SCORE.SYSTEM.DIHEDRAL>
0

>  <SCORE.SYSTEM.SOLV>
0

>  <SCORE.SYSTEM.norm>
0

>  <SCORE.heavy>
49

>  <SCORE.norm>
-0.211884

>  <RMSD>
9.464

$$$$
ligand
 OpenBabel11021811513D
libRbt.so/2013.1/901 2013/11/27
 49 52  0  0  0  0  0  0  0  0999 V2000
   25.3194    2.9746    8.6911 C   0  0  2  0  0  0  0  0  0  0  0  0
   24.5863    3.9578    8.0220 O   0  0  0  0  0  0  0  0  0  0  0  0
   24.4593    2.3791    9.8670 C   0  0  2  0  0  0  0  0  0  0  0  0
   23.1779    1.7897    9.2984 N   0  0  0  0  0  0  0  0  0  0  0  0
   26.1819    3.1981    1.7309 O   0  0  0  0  0  0  0  0  0  0  0  0
   24.1594    3.4702   10.9212 C   0  0  2  0  0  0  0  0  0  0  0  0
   29.4894    5.5676   -1.9950 N   0  0  0  0  0  0  0  0  0  0  0  0
   25.4679    4.0640   11.4660 C   0  0  2  0  0  0  0  0  0  0  0  0
   26.3646    4.6737   10.3067 C   0  0  2  0  0  0  0  0  0  0  0  0
   26.5896    3.5768    9.2643 O   0  0  0  0  0  0  0  0  0  0  0  0
   27.7120    5.2229   10.8585 C   0  0  0  0  0  0  0  0  0  0  0  0
   28.5723    4.2188   11.3741 N   0  0  0  0  0  0  0  0  0  0  0  0
   26.4450    4.7435    4.1839 C   0  0  2  0  0  0  0  0  0  0  0  0
   26.6540    5.3237    2.8250 N   0  0  0  0  0  0  0  0  0  0  0  0
   24.9099    4.2820    4.2663 C   0  0  0  0  0  0  0  0  0  0  0  0
   24.6068    3.6317    5.6675 C   0  0  2  0  0  0  0  0  0  0  0  0
   23.1977    3.2228    5.7628 N   0  0  0  0  0  0  0  0  0  0  0  0
   24.8943    4.6403    6.7976 C   0  0  2  0  0  0  0  0  0  0  0  0
   26.4010    5.1195    6.7423 C   0  0  2  0  0  0  0  0  0  0  0  0
   26.5749    6.0684    7.8599 O   0  0  0  0  0  0  0  0  0  0  0  0
   26.6673    5.8397    5.3239 C   0  0  1  0  0  0  0  0  0  0  0  0
   27.9946    6.2607    5.2981 O   0  0  0  0  0  0  0  0  0  0  0  0
   26.0415    7.2366    7.9764 C   0  0  1  0  0  0  0  0  0  0  0  0
   24.4857    7.2765    7.9273 C   0  0  2  0  0  0  0  0  0  0  0  0
   24.0991    7.4641    6.6025 O   0  0  0  0  0  0  0  0  0  0  0  0
   24.2722    8.4905    8.7328 C   0  0  1  0  0  0  0  0  0  0  0  0
   25.3044    8.4855    9.9024 C   0  0  2  0  0  0  0  0  0  0  0  0
   26.4025    7.9594    9.1983 O   0  0  0  0  0  0  0  0  0  0  0  0
   24.9082    7.8047   11.2133 C   0  0  0  0  0  0  0  0  0  0  0  0
   26.0129    7.9514   12.0856 O   0  0  0  0  0  0  0  0  0  0  0  0
   24.2380   10.9061    8.3001 C   0  0  2  0  0  0  0  0  0  0  0  0
   24.4537    9.6527    7.8041 O   0  0  0  0  0  0  0  0  0  0  0  0
   24.3701   11.9619    7.2424 C   0  0  1  0  0  0  0  0  0  0  0  0
   25.8260   11.9388   12.4543 N   0  0  0  0  0  0  0  0  0  0  0  0
   26.1863    6.4884    0.3349 O   0  0  0  0  0  0  0  0  0  0  0  0
   24.1598   13.3839    7.8934 C   0  0  2  0  0  0  0  0  0  0  0  0
   25.1456   13.6875    9.0744 C   0  0  1  0  0  0  0  0  0  0  0  0
   24.9932   12.6648   10.0826 C   0  0  1  0  0  0  0  0  0  0  0  0
   25.1905   11.2862    9.4814 O   0  0  0  0  0  0  0  0  0  0  0  0
   26.0085   12.9091   11.2837 C   0  0  0  0  0  0  0  0  0  0  0  0
   25.6628   11.9247    6.6820 N   0  0  0  0  0  0  0  0  0  0  0  0
   23.5700    3.0044   11.7826 O   0  0  0  0  0  0  0  0  0  0  0  0
   28.0506    5.2155    0.0821 C   0  0  0  0  0  0  0  0  0  0  0  0
   26.2185   13.6517    8.6679 O   0  0  0  0  0  0  0  0  0  0  0  0
   23.0968   13.4237    8.3311 O   0  0  0  0  0  0  0  0  0  0  0  0
   26.4860    4.3972    1.6578 C   0  0  0  0  0  0  0  0  0  0  0  0
   28.2921    5.5386   -1.2345 C   0  0  0  0  0  0  0  0  0  0  0  0
   26.7310    5.1726    0.2613 C   0  0  1  0  0  0  0  0  0  0  0  0
   26.2131    3.0646   12.1164 F   0  0  0  0  0  0  0  0  0  0  0  0
  1  2  1  1  0  0  0
  1 10  1  0  0  0  0
  1  3  1  0  0  0  0
  3  4  1  6  0  0  0
  3  6  1  0  0  0  0
  5 46  2  0  0  0  0
  6 42  1  1  0  0  0
  6  8  1  0  0  0  0
  7 47  1  0  0  0  0
  8  9  1  0  0  0  0
  8 49  1  6  0  0  0
  9 10  1  0  0  0  0
  9 11  1  1  0  0  0
 11 12  1  0  0  0  0
 13 14  1  6  0  0  0
 13 15  1  0  0  0  0
 13 21  1  0  0  0  0
 14 46  1  0  0  0  0
 15 16  1  0  0  0  0
 16 17  1  6  0  0  0
 16 18  1  0  0  0  0
 18  2  1  1  0  0  0
 18 19  1  0  0  0  0
 19 20  1  1  0  0  0
 19 21  1  0  0  0  0
 21 22  1  1  0  0  0
 23 20  1  1  0  0  0
 23 24  1  0  0  0  0
 23 28  1  0  0  0  0
 24 25  1  6  0  0  0
 24 26  1  0  0  0  0
 26 27  1  0  0  0  0
 26 32  1  6  0  0  0
 27 28  1  0  0  0  0
 27 29  1  1  0  0  0
 29 30  1  0  0  0  0
 31 32  1  6  0  0  0
 31 33  1  0  0  0  0
 31 39  1  0  0  0  0
 33 36  1  0  0  0  0
 33 41  1  1  0  0  0
 34 40  1  0  0  0  0
 35 48  1  0  0  0  0
 36 37  1  0  0  0  0
 36 45  1  1  0  0  0
 37 38  1  0  0  0  0
 37 44  1  6  0  0  0
 38 39  1  0  0  0  0
 38 40  1  1  0  0  0
 43 47  1  0  0  0  0
 46 48  1  0  0  0  0
 48 43  1  1  0  0  0
M  END
>  <CHROM.1>
-171.13448290,75.69827689,66.28509968,-63.73289423,-67.65138640,57.54587195
176.69011476,-179.82338446,-176.36887057,174.86078584,-171.73244287,-76.30075553
140.88466936,25.65814010,6.87797945,7.40207953,0.39387124,-1.39948524,2.91866459

>  <Name>
ligand

>  <RI>
0

>  <Rbt.Current_Directory>
/home/itssahil/PROJECTS/Mol_Feturizer/New_Systems/rnas/4PDQ

>  <Rbt.Executable>
rbdock ($Id: //depot/dev/client3/rdock/2013.1/src/exe/rbdock.cxx#4 $)

>  <Rbt.Library>
libRbt.so (2013.1, Build901 2013/11/27)

>  <Rbt.Parameter_File>
/export/apps/rDock/src/rDock_2013.1_src/data/scripts/dock_solv.prm

>  <Rbt.Receptor>
prm/pocket_docking_8.prm

>  <SCORE>
-10.6778

>  <SCORE.INTER>
3.53208

>  <SCORE.INTER.CONST>
1

>  <SCORE.INTER.POLAR>
0

>  <SCORE.INTER.ROT>
13

>  <SCORE.INTER.SOLV>
14.4008

>  <SCORE.INTER.VDW>
-14.7122

>  <SCORE.INTER.norm>
0.0720832

>  <SCORE.INTRA>
-14.2099

>  <SCORE.INTRA.DIHEDRAL>
-29.7978

>  <SCORE.INTRA.DIHEDRAL.0>
34.5115

>  <SCORE.INTRA.POLAR>
0

>  <SCORE.INTRA.POLAR.0>
0

>  <SCORE.INTRA.REPUL>
0

>  <SCORE.INTRA.REPUL.0>
0

>  <SCORE.INTRA.SOLV>
-0.802084

>  <SCORE.INTRA.SOLV.lig_0>
-122.812

>  <SCORE.INTRA.VDW>
1.09006

>  <SCORE.INTRA.VDW.0>
-7.46208

>  <SCORE.INTRA.norm>
-0.289998

>  <SCORE.RESTR>
0

>  <SCORE.RESTR.CAVITY>
0

>  <SCORE.RESTR.norm>
0

>  <SCORE.SYSTEM>
0

>  <SCORE.SYSTEM.CONST>
0

>  <SCORE.SYSTEM.DIHEDRAL>
0

>  <SCORE.SYSTEM.SOLV>
0

>  <SCORE.SYSTEM.norm>
0

>  <SCORE.heavy>
49

>  <SCORE.norm>
-0.217914

>  <RMSD>
9.464

$$$$
ligand
 OpenBabel11021811513D
libRbt.so/2013.1/901 2013/11/27
 49 52  0  0  0  0  0  0  0  0999 V2000
   25.5721    2.7112    9.4123 C   0  0  2  0  0  0  0  0  0  0  0  0
   24.8006    3.0350    8.2934 O   0  0  0  0  0  0  0  0  0  0  0  0
   24.6971    2.8359   10.7146 C   0  0  2  0  0  0  0  0  0  0  0  0
   23.5037    1.8998   10.6048 N   0  0  0  0  0  0  0  0  0  0  0  0
   30.0635    2.9120    4.1554 O   0  0  0  0  0  0  0  0  0  0  0  0
   24.2478    4.3009   10.9234 C   0  0  2  0  0  0  0  0  0  0  0  0
   28.8039    3.3590   -1.0708 N   0  0  0  0  0  0  0  0  0  0  0  0
   25.4692    5.2293   11.0114 C   0  0  2  0  0  0  0  0  0  0  0  0
   26.3784    5.1295    9.7141 C   0  0  2  0  0  0  0  0  0  0  0  0
   26.7531    3.6592    9.5183 O   0  0  0  0  0  0  0  0  0  0  0  0
   27.6419    6.0301    9.8339 C   0  0  0  0  0  0  0  0  0  0  0  0
   28.6323    5.5148   10.7099 N   0  0  0  0  0  0  0  0  0  0  0  0
   27.4696    3.9319    4.9956 C   0  0  2  0  0  0  0  0  0  0  0  0
   27.9751    4.0357    3.5954 N   0  0  0  0  0  0  0  0  0  0  0  0
   26.8446    2.4627    5.1613 C   0  0  0  0  0  0  0  0  0  0  0  0
   26.3061    2.2575    6.6263 C   0  0  2  0  0  0  0  0  0  0  0  0
   25.7125    0.9217    6.7851 N   0  0  0  0  0  0  0  0  0  0  0  0
   25.2249    3.3079    6.9498 C   0  0  2  0  0  0  0  0  0  0  0  0
   25.8081    4.7700    6.7916 C   0  0  2  0  0  0  0  0  0  0  0  0
   24.7066    5.6936    7.1280 O   0  0  0  0  0  0  0  0  0  0  0  0
   26.2921    4.9761    5.2669 C   0  0  1  0  0  0  0  0  0  0  0  0
   26.7940    6.2696    5.1465 O   0  0  0  0  0  0  0  0  0  0  0  0
   24.7117    6.9788    7.0228 C   0  0  1  0  0  0  0  0  0  0  0  0
   23.3277    7.6748    7.1802 C   0  0  2  0  0  0  0  0  0  0  0  0
   22.7522    7.7845    5.9166 O   0  0  0  0  0  0  0  0  0  0  0  0
   23.7939    8.9789    7.6801 C   0  0  1  0  0  0  0  0  0  0  0  0
   24.9809    8.7276    8.6605 C   0  0  2  0  0  0  0  0  0  0  0  0
   25.5948    7.6704    7.9649 O   0  0  0  0  0  0  0  0  0  0  0  0
   24.6628    8.5144   10.1412 C   0  0  0  0  0  0  0  0  0  0  0  0
   25.9006    8.5731   10.8248 O   0  0  0  0  0  0  0  0  0  0  0  0
   24.5115   11.0912    6.6570 C   0  0  2  0  0  0  0  0  0  0  0  0
   24.1951    9.7757    6.4758 O   0  0  0  0  0  0  0  0  0  0  0  0
   24.8495   11.7735    5.3642 C   0  0  1  0  0  0  0  0  0  0  0  0
   27.5748   14.2687    9.4431 N   0  0  0  0  0  0  0  0  0  0  0  0
   31.0942    4.0560    1.6565 O   0  0  0  0  0  0  0  0  0  0  0  0
   25.2534   13.2713    5.6531 C   0  0  2  0  0  0  0  0  0  0  0  0
   26.4462   13.4186    6.6602 C   0  0  1  0  0  0  0  0  0  0  0  0
   26.0938   12.7636    7.8981 C   0  0  1  0  0  0  0  0  0  0  0  0
   25.7006   11.3201    7.6474 O   0  0  0  0  0  0  0  0  0  0  0  0
   27.2959   12.8503    8.9376 C   0  0  0  0  0  0  0  0  0  0  0  0
   25.9476   11.1347    4.7539 N   0  0  0  0  0  0  0  0  0  0  0  0
   23.6497    4.3726   11.8948 O   0  0  0  0  0  0  0  0  0  0  0  0
   29.5538    2.4523    1.1928 C   0  0  0  0  0  0  0  0  0  0  0  0
   27.3646   12.8962    6.2116 O   0  0  0  0  0  0  0  0  0  0  0  0
   24.3501   13.8001    6.1303 O   0  0  0  0  0  0  0  0  0  0  0  0
   29.3345    3.4656    3.3201 C   0  0  0  0  0  0  0  0  0  0  0  0
   29.6166    2.6206   -0.1724 C   0  0  0  0  0  0  0  0  0  0  0  0
   29.7339    3.6424    1.7643 C   0  0  1  0  0  0  0  0  0  0  0  0
   26.2551    4.8828   12.1247 F   0  0  0  0  0  0  0  0  0  0  0  0
  1  2  1  6  0  0  0
  1 10  1  0  0  0  0
  1  3  1  0  0  0  0
  3  4  1  6  0  0  0
  3  6  1  0  0  0  0
  5 46  2  0  0  0  0
  6 42  1  1  0  0  0
  6  8  1  0  0  0  0
  7 47  1  0  0  0  0
  8  9  1  0  0  0  0
  8 49  1  1  0  0  0
  9 10  1  0  0  0  0
  9 11  1  1  0  0  0
 11 12  1  0  0  0  0
 13 14  1  6  0  0  0
 13 15  1  0  0  0  0
 13 21  1  0  0  0  0
 14 46  1  0  0  0  0
 15 16  1  0  0  0  0
 16 17  1  6  0  0  0
 16 18  1  0  0  0  0
 18  2  1  1  0  0  0
 18 19  1  0  0  0  0
 19 20  1  6  0  0  0
 19 21  1  0  0  0  0
 21 22  1  1  0  0  0
 23 20  1  1  0  0  0
 23 24  1  0  0  0  0
 23 28  1  0  0  0  0
 24 25  1  6  0  0  0
 24 26  1  0  0  0  0
 26 27  1  0  0  0  0
 26 32  1  6  0  0  0
 27 28  1  0  0  0  0
 27 29  1  1  0  0  0
 29 30  1  0  0  0  0
 31 32  1  6  0  0  0
 31 33  1  0  0  0  0
 31 39  1  0  0  0  0
 33 36  1  0  0  0  0
 33 41  1  1  0  0  0
 34 40  1  0  0  0  0
 35 48  1  0  0  0  0
 36 37  1  0  0  0  0
 36 45  1  1  0  0  0
 37 38  1  0  0  0  0
 37 44  1  6  0  0  0
 38 39  1  0  0  0  0
 38 40  1  1  0  0  0
 43 47  1  0  0  0  0
 46 48  1  0  0  0  0
 48 43  1  6  0  0  0
M  END
>  <CHROM.1>
166.76041110,42.53025659,74.35201013,-82.69042208,-173.76086664,168.37539155
172.08117521,-168.87629242,-178.13508658,67.84373959,-63.02022725,-72.71102734
-43.48764762,26.20993248,6.62736530,7.00519853,0.92108245,-1.14887702,2.90992414

>  <Name>
ligand

>  <RI>
0

>  <Rbt.Current_Directory>
/home/itssahil/PROJECTS/Mol_Feturizer/New_Systems/rnas/4PDQ

>  <Rbt.Executable>
rbdock ($Id: //depot/dev/client3/rdock/2013.1/src/exe/rbdock.cxx#4 $)

>  <Rbt.Library>
libRbt.so (2013.1, Build901 2013/11/27)

>  <Rbt.Parameter_File>
/export/apps/rDock/src/rDock_2013.1_src/data/scripts/dock_solv.prm

>  <Rbt.Receptor>
prm/pocket_docking_8.prm

>  <SCORE>
-11.0785

>  <SCORE.INTER>
2.02867

>  <SCORE.INTER.CONST>
1

>  <SCORE.INTER.POLAR>
0

>  <SCORE.INTER.ROT>
13

>  <SCORE.INTER.SOLV>
14.158

>  <SCORE.INTER.VDW>
-15.6336

>  <SCORE.INTER.norm>
0.0414015

>  <SCORE.INTRA>
-13.1072

>  <SCORE.INTRA.DIHEDRAL>
-26.5664

>  <SCORE.INTRA.DIHEDRAL.0>
34.5115

>  <SCORE.INTRA.POLAR>
0

>  <SCORE.INTRA.POLAR.0>
0

>  <SCORE.INTRA.REPUL>
0

>  <SCORE.INTRA.REPUL.0>
0

>  <SCORE.INTRA.SOLV>
-1.18856

>  <SCORE.INTRA.SOLV.lig_0>
-122.812

>  <SCORE.INTRA.VDW>
0.770322

>  <SCORE.INTRA.VDW.0>
-7.46208

>  <SCORE.INTRA.norm>
-0.267493

>  <SCORE.RESTR>
0

>  <SCORE.RESTR.CAVITY>
0

>  <SCORE.RESTR.norm>
0

>  <SCORE.SYSTEM>
0

>  <SCORE.SYSTEM.CONST>
0

>  <SCORE.SYSTEM.DIHEDRAL>
0

>  <SCORE.SYSTEM.SOLV>
0

>  <SCORE.SYSTEM.norm>
0

>  <SCORE.heavy>
49

>  <SCORE.norm>
-0.226092

>  <RMSD>
9.469

$$$$
ligand
 OpenBabel11021811513D
libRbt.so/2013.1/901 2013/11/27
 49 52  0  0  0  0  0  0  0  0999 V2000
   25.4260   14.5171    6.0077 C   0  0  2  0  0  0  0  0  0  0  0  0
   26.1904   14.3955    7.1709 O   0  0  0  0  0  0  0  0  0  0  0  0
   25.7415   15.8904    5.3063 C   0  0  2  0  0  0  0  0  0  0  0  0
   27.2244   15.9517    4.9749 N   0  0  0  0  0  0  0  0  0  0  0  0
   25.5138   10.3192   11.1950 O   0  0  0  0  0  0  0  0  0  0  0  0
   25.3168   17.0687    6.2135 C   0  0  2  0  0  0  0  0  0  0  0  0
   27.5447    5.9824   10.5658 N   0  0  0  0  0  0  0  0  0  0  0  0
   23.8205   16.9740    6.5506 C   0  0  2  0  0  0  0  0  0  0  0  0
   23.4630   15.5991    7.2588 C   0  0  2  0  0  0  0  0  0  0  0  0
   23.9483   14.4666    6.3521 O   0  0  0  0  0  0  0  0  0  0  0  0
   21.9378   15.4870    7.5468 C   0  0  0  0  0  0  0  0  0  0  0  0
   21.4613   16.4337    8.4905 N   0  0  0  0  0  0  0  0  0  0  0  0
   27.8224   11.2751    9.7012 C   0  0  2  0  0  0  0  0  0  0  0  0
   27.9211   10.2905   10.8182 N   0  0  0  0  0  0  0  0  0  0  0  0
   27.3155   12.6585   10.3382 C   0  0  0  0  0  0  0  0  0  0  0  0
   27.2062   13.7672    9.2260 C   0  0  2  0  0  0  0  0  0  0  0  0
   26.7232   15.0346    9.7938 N   0  0  0  0  0  0  0  0  0  0  0  0
   26.2210   13.3246    8.1258 C   0  0  2  0  0  0  0  0  0  0  0  0
   26.6899   11.9591    7.4789 C   0  0  2  0  0  0  0  0  0  0  0  0
   25.6930   11.6285    6.4415 O   0  0  0  0  0  0  0  0  0  0  0  0
   26.7305   10.8257    8.6257 C   0  0  1  0  0  0  0  0  0  0  0  0
   27.1373    9.6316    8.0357 O   0  0  0  0  0  0  0  0  0  0  0  0
   25.7179   10.6245    5.6328 C   0  0  1  0  0  0  0  0  0  0  0  0
   24.4914   10.4921    4.6826 C   0  0  2  0  0  0  0  0  0  0  0  0
   23.5407    9.6919    5.3118 O   0  0  0  0  0  0  0  0  0  0  0  0
   25.1497    9.7831    3.5727 C   0  0  1  0  0  0  0  0  0  0  0  0
   26.5797   10.3804    3.3944 C   0  0  2  0  0  0  0  0  0  0  0  0
   26.8882   10.5706    4.7535 O   0  0  0  0  0  0  0  0  0  0  0  0
   26.7529   11.5728    2.4525 C   0  0  0  0  0  0  0  0  0  0  0  0
   26.2787   11.1508    1.1877 O   0  0  0  0  0  0  0  0  0  0  0  0
   25.7397    7.4537    3.0735 C   0  0  2  0  0  0  0  0  0  0  0  0
   25.1699    8.3325    3.9490 O   0  0  0  0  0  0  0  0  0  0  0  0
   25.0086    7.4075    1.7642 C   0  0  1  0  0  0  0  0  0  0  0  0
   27.3717    3.4966    4.6642 N   0  0  0  0  0  0  0  0  0  0  0  0
   26.1751    9.1830   13.8353 O   0  0  0  0  0  0  0  0  0  0  0  0
   25.6878    6.3384    0.8231 C   0  0  2  0  0  0  0  0  0  0  0  0
   25.7529    4.9013    1.4471 C   0  0  1  0  0  0  0  0  0  0  0  0
   26.4685    4.9697    2.6996 C   0  0  1  0  0  0  0  0  0  0  0  0
   25.8347    5.9923    3.6236 O   0  0  0  0  0  0  0  0  0  0  0  0
   26.5210    3.5374    3.3916 C   0  0  0  0  0  0  0  0  0  0  0  0
   23.6699    7.0189    1.9722 N   0  0  0  0  0  0  0  0  0  0  0  0
   25.5180   18.0518    5.6664 O   0  0  0  0  0  0  0  0  0  0  0  0
   26.5019    7.6437   12.1971 C   0  0  0  0  0  0  0  0  0  0  0  0
   24.6803    4.5469    1.6507 O   0  0  0  0  0  0  0  0  0  0  0  0
   26.7740    6.6666    0.6337 O   0  0  0  0  0  0  0  0  0  0  0  0
   26.6407    9.8990   11.4936 C   0  0  0  0  0  0  0  0  0  0  0  0
   27.4766    7.1609   11.3528 C   0  0  0  0  0  0  0  0  0  0  0  0
   26.9096    8.8216   12.6676 C   0  0  1  0  0  0  0  0  0  0  0  0
   23.0572   17.0719    5.3737 F   0  0  0  0  0  0  0  0  0  0  0  0
  1  2  1  1  0  0  0
  1 10  1  0  0  0  0
  1  3  1  0  0  0  0
  3  4  1  1  0  0  0
  3  6  1  0  0  0  0
  5 46  2  0  0  0  0
  6 42  1  6  0  0  0
  6  8  1  0  0  0  0
  7 47  1  0  0  0  0
  8  9  1  0  0  0  0
  8 49  1  6  0  0  0
  9 10  1  0  0  0  0
  9 11  1  6  0  0  0
 11 12  1  0  0  0  0
 13 14  1  1  0  0  0
 13 15  1  0  0  0  0
 13 21  1  0  0  0  0
 14 46  1  0  0  0  0
 15 16  1  0  0  0  0
 16 17  1  1  0  0  0
 16 18  1  0  0  0  0
 18  2  1  6  0  0  0
 18 19  1  0  0  0  0
 19 20  1  6  0  0  0
 19 21  1  0  0  0  0
 21 22  1  6  0  0  0
 23 20  1  6  0  0  0
 23 24  1  0  0  0  0
 23 28  1  0  0  0  0
 24 25  1  1  0  0  0
 24 26  1  0  0  0  0
 26 27  1  0  0  0  0
 26 32  1  1  0  0  0
 27 28  1  0  0  0  0
 27 29  1  6  0  0  0
 29 30  1  0  0  0  0
 31 32  1  1  0  0  0
 31 33  1  0  0  0  0
 31 39  1  0  0  0  0
 33 36  1  0  0  0  0
 33 41  1  1  0  0  0
 34 40  1  0  0  0  0
 35 48  1  0  0  0  0
 36 37  1  0  0  0  0
 36 45  1  1  0  0  0
 37 38  1  0  0  0  0
 37 44  1  1  0  0  0
 38 39  1  0  0  0  0
 38 40  1  1  0  0  0
 43 47  1  0  0  0  0
 46 48  1  0  0  0  0
 48 43  1  6  0  0  0
M  END
>  <CHROM.1>
179.36363242,-177.74119737,-65.48580304,65.33768692,177.01556055,177.29289808
-179.80598918,-57.73646658,-63.00312304,174.77009265,-178.14192264,-162.04349590
-45.94407860,25.75684693,10.76003189,6.28719965,1.89524322,-1.31886260,0.82935470

>  <Name>
ligand

>  <RI>
0

>  <Rbt.Current_Directory>
/home/itssahil/PROJECTS/Mol_Feturizer/New_Systems/rnas/4PDQ

>  <Rbt.Executable>
rbdock ($Id: //depot/dev/client3/rdock/2013.1/src/exe/rbdock.cxx#4 $)

>  <Rbt.Library>
libRbt.so (2013.1, Build901 2013/11/27)

>  <Rbt.Parameter_File>
/export/apps/rDock/src/rDock_2013.1_src/data/scripts/dock_solv.prm

>  <Rbt.Receptor>
prm/pocket_docking_8.prm

>  <SCORE>
-13.5854

>  <SCORE.INTER>
1.01549

>  <SCORE.INTER.CONST>
1

>  <SCORE.INTER.POLAR>
0

>  <SCORE.INTER.ROT>
13

>  <SCORE.INTER.SOLV>
23.5765

>  <SCORE.INTER.VDW>
-19.4485

>  <SCORE.INTER.norm>
0.0207243

>  <SCORE.INTRA>
-14.6009

>  <SCORE.INTRA.DIHEDRAL>
-30.7204

>  <SCORE.INTRA.DIHEDRAL.0>
34.5115

>  <SCORE.INTRA.POLAR>
0

>  <SCORE.INTRA.POLAR.0>
0

>  <SCORE.INTRA.REPUL>
0

>  <SCORE.INTRA.REPUL.0>
0

>  <SCORE.INTRA.SOLV>
-4.02466

>  <SCORE.INTRA.SOLV.lig_0>
-122.812

>  <SCORE.INTRA.VDW>
2.77165

>  <SCORE.INTRA.VDW.0>
-7.46208

>  <SCORE.INTRA.norm>
-0.297977

>  <SCORE.RESTR>
0

>  <SCORE.RESTR.CAVITY>
0

>  <SCORE.RESTR.norm>
0

>  <SCORE.SYSTEM>
0

>  <SCORE.SYSTEM.CONST>
0

>  <SCORE.SYSTEM.DIHEDRAL>
0

>  <SCORE.SYSTEM.SOLV>
0

>  <SCORE.SYSTEM.norm>
0

>  <SCORE.heavy>
49

>  <SCORE.norm>
-0.277253

>  <RMSD>
9.477

$$$$
ligand
 OpenBabel11021811513D
libRbt.so/2013.1/901 2013/11/27
 49 52  0  0  0  0  0  0  0  0999 V2000
   30.2043    8.9513    0.5775 C   0  0  2  0  0  0  0  0  0  0  0  0
   30.2318    9.3346    1.9208 O   0  0  0  0  0  0  0  0  0  0  0  0
   31.3181    7.8717    0.3106 C   0  0  2  0  0  0  0  0  0  0  0  0
   31.0731    6.6701    1.2098 N   0  0  0  0  0  0  0  0  0  0  0  0
   27.2591    7.3731    7.8332 O   0  0  0  0  0  0  0  0  0  0  0  0
   32.7219    8.4763    0.5466 C   0  0  2  0  0  0  0  0  0  0  0  0
   23.6978   11.1162    9.6167 N   0  0  0  0  0  0  0  0  0  0  0  0
   32.9381    9.6997   -0.3579 C   0  0  2  0  0  0  0  0  0  0  0  0
   31.8308   10.8115   -0.1181 C   0  0  2  0  0  0  0  0  0  0  0  0
   30.4618   10.1561   -0.3096 O   0  0  0  0  0  0  0  0  0  0  0  0
   32.0236   12.0226   -1.0760 C   0  0  0  0  0  0  0  0  0  0  0  0
   33.3816   12.3087   -1.3725 N   0  0  0  0  0  0  0  0  0  0  0  0
   27.7815    9.0105    5.4836 C   0  0  2  0  0  0  0  0  0  0  0  0
   26.7626    9.3620    6.5158 N   0  0  0  0  0  0  0  0  0  0  0  0
   28.6457   10.3345    5.2070 C   0  0  0  0  0  0  0  0  0  0  0  0
   29.7674   10.0450    4.1411 C   0  0  2  0  0  0  0  0  0  0  0  0
   30.5535   11.2562    3.8640 N   0  0  0  0  0  0  0  0  0  0  0  0
   29.1362    9.5660    2.8185 C   0  0  2  0  0  0  0  0  0  0  0  0
   28.2724    8.2622    3.0571 C   0  0  2  0  0  0  0  0  0  0  0  0
   27.7225    7.8833    1.7405 O   0  0  0  0  0  0  0  0  0  0  0  0
   27.0919    8.6031    4.1019 C   0  0  1  0  0  0  0  0  0  0  0  0
   26.3393    7.4467    4.2923 O   0  0  0  0  0  0  0  0  0  0  0  0
   26.8220    8.5125    1.0651 C   0  0  1  0  0  0  0  0  0  0  0  0
   25.4523    8.7041    1.7805 C   0  0  2  0  0  0  0  0  0  0  0  0
   24.6389    7.6214    1.4552 O   0  0  0  0  0  0  0  0  0  0  0  0
   25.0186    9.9342    1.0973 C   0  0  1  0  0  0  0  0  0  0  0  0
   26.2654   10.8534    0.9131 C   0  0  2  0  0  0  0  0  0  0  0  0
   27.2101    9.8532    0.6206 O   0  0  0  0  0  0  0  0  0  0  0  0
   26.6027   11.8460    2.0266 C   0  0  0  0  0  0  0  0  0  0  0  0
   26.4973   11.1289    3.2420 O   0  0  0  0  0  0  0  0  0  0  0  0
   23.9095   10.4731   -1.0247 C   0  0  2  0  0  0  0  0  0  0  0  0
   24.4166    9.5052   -0.2064 O   0  0  0  0  0  0  0  0  0  0  0  0
   23.1417    9.8933   -2.1760 C   0  0  1  0  0  0  0  0  0  0  0  0
   25.2539   14.6550   -3.8568 N   0  0  0  0  0  0  0  0  0  0  0  0
   25.2067    7.9272    9.6707 O   0  0  0  0  0  0  0  0  0  0  0  0
   22.6299   11.0617   -3.1049 C   0  0  2  0  0  0  0  0  0  0  0  0
   23.7763   11.9869   -3.6420 C   0  0  1  0  0  0  0  0  0  0  0  0
   24.4936   12.5400   -2.5173 C   0  0  1  0  0  0  0  0  0  0  0  0
   24.9965   11.4356   -1.6071 O   0  0  0  0  0  0  0  0  0  0  0  0
   25.6972   13.4535   -3.0172 C   0  0  0  0  0  0  0  0  0  0  0  0
   23.9793    9.0594   -2.9438 N   0  0  0  0  0  0  0  0  0  0  0  0
   33.5129    7.6868    0.3074 O   0  0  0  0  0  0  0  0  0  0  0  0
   25.9804   10.0271    9.2815 C   0  0  0  0  0  0  0  0  0  0  0  0
   24.4972   11.3453   -4.2636 O   0  0  0  0  0  0  0  0  0  0  0  0
   21.9278   11.7301   -2.4857 O   0  0  0  0  0  0  0  0  0  0  0  0
   26.6076    8.4141    7.6674 C   0  0  0  0  0  0  0  0  0  0  0  0
   25.0445   11.0319    9.1783 C   0  0  0  0  0  0  0  0  0  0  0  0
   25.4810    8.9365    8.7015 C   0  0  1  0  0  0  0  0  0  0  0  0
   32.8845    9.3122   -1.7086 F   0  0  0  0  0  0  0  0  0  0  0  0
  1  2  1  1  0  0  0
  1 10  1  0  0  0  0
  1  3  1  0  0  0  0
  3  4  1  1  0  0  0
  3  6  1  0  0  0  0
  5 46  2  0  0  0  0
  6 42  1  6  0  0  0
  6  8  1  0  0  0  0
  7 47  1  0  0  0  0
  8  9  1  0  0  0  0
  8 49  1  6  0  0  0
  9 10  1  0  0  0  0
  9 11  1  6  0  0  0
 11 12  1  0  0  0  0
 13 14  1  1  0  0  0
 13 15  1  0  0  0  0
 13 21  1  0  0  0  0
 14 46  1  0  0  0  0
 15 16  1  0  0  0  0
 16 17  1  6  0  0  0
 16 18  1  0  0  0  0
 18  2  1  6  0  0  0
 18 19  1  0  0  0  0
 19 20  1  6  0  0  0
 19 21  1  0  0  0  0
 21 22  1  1  0  0  0
 23 20  1  1  0  0  0
 23 24  1  0  0  0  0
 23 28  1  0  0  0  0
 24 25  1  6  0  0  0
 24 26  1  0  0  0  0
 26 27  1  0  0  0  0
 26 32  1  6  0  0  0
 27 28  1  0  0  0  0
 27 29  1  1  0  0  0
 29 30  1  0  0  0  0
 31 32  1  6  0  0  0
 31 33  1  0  0  0  0
 31 39  1  0  0  0  0
 33 36  1  0  0  0  0
 33 41  1  6  0  0  0
 34 40  1  0  0  0  0
 35 48  1  0  0  0  0
 36 37  1  0  0  0  0
 36 45  1  1  0  0  0
 37 38  1  0  0  0  0
 37 44  1  6  0  0  0
 38 39  1  0  0  0  0
 38 40  1  6  0  0  0
 43 47  1  0  0  0  0
 46 48  1  0  0  0  0
 48 43  1  1  0  0  0
M  END
>  <CHROM.1>
-138.13932481,-176.72489573,-34.01752091,-132.58541680,-69.48513110,-58.61437794
178.78027376,45.59795006,-170.50058556,61.26270358,57.74721926,-111.55524618
-9.79010355,27.38768333,9.89018627,1.69502978,-1.57006519,-0.16578102,1.78136388

>  <Name>
ligand

>  <RI>
0

>  <Rbt.Current_Directory>
/home/itssahil/PROJECTS/Mol_Feturizer/New_Systems/rnas/4PDQ

>  <Rbt.Executable>
rbdock ($Id: //depot/dev/client3/rdock/2013.1/src/exe/rbdock.cxx#4 $)

>  <Rbt.Library>
libRbt.so (2013.1, Build901 2013/11/27)

>  <Rbt.Parameter_File>
/export/apps/rDock/src/rDock_2013.1_src/data/scripts/dock_solv.prm

>  <Rbt.Receptor>
prm/pocket_docking_3.prm

>  <SCORE>
-5.9408

>  <SCORE.INTER>
0.186463

>  <SCORE.INTER.CONST>
1

>  <SCORE.INTER.POLAR>
0

>  <SCORE.INTER.ROT>
13

>  <SCORE.INTER.SOLV>
18.8068

>  <SCORE.INTER.VDW>
-18.4113

>  <SCORE.INTER.norm>
0.00380538

>  <SCORE.INTRA>
-7.08976

>  <SCORE.INTRA.DIHEDRAL>
-18.093

>  <SCORE.INTRA.DIHEDRAL.0>
34.5115

>  <SCORE.INTRA.POLAR>
0

>  <SCORE.INTRA.POLAR.0>
0

>  <SCORE.INTRA.REPUL>
0

>  <SCORE.INTRA.REPUL.0>
0

>  <SCORE.INTRA.SOLV>
1.28657

>  <SCORE.INTRA.SOLV.lig_0>
-122.812

>  <SCORE.INTRA.VDW>
1.31343

>  <SCORE.INTRA.VDW.0>
-7.46208

>  <SCORE.INTRA.norm>
-0.144689

>  <SCORE.RESTR>
0.962493

>  <SCORE.RESTR.CAVITY>
0.962493

>  <SCORE.RESTR.norm>
0.0196427

>  <SCORE.SYSTEM>
0

>  <SCORE.SYSTEM.CONST>
0

>  <SCORE.SYSTEM.DIHEDRAL>
0

>  <SCORE.SYSTEM.SOLV>
0

>  <SCORE.SYSTEM.norm>
0

>  <SCORE.heavy>
49

>  <SCORE.norm>
-0.121241

>  <RMSD>
9.479

$$$$
ligand
 OpenBabel11021811513D
libRbt.so/2013.1/901 2013/11/27
 49 52  0  0  0  0  0  0  0  0999 V2000
   28.1407    9.7128    7.8760 C   0  0  2  0  0  0  0  0  0  0  0  0
   27.2390    9.4852    6.8333 O   0  0  0  0  0  0  0  0  0  0  0  0
   28.5051    8.3480    8.5701 C   0  0  2  0  0  0  0  0  0  0  0  0
   29.1134    7.4109    7.5384 N   0  0  0  0  0  0  0  0  0  0  0  0
   24.1252    9.3129    0.6809 O   0  0  0  0  0  0  0  0  0  0  0  0
   27.2509    7.7261    9.2273 C   0  0  2  0  0  0  0  0  0  0  0  0
   25.5668   13.1140   -2.8498 N   0  0  0  0  0  0  0  0  0  0  0  0
   26.6432    8.6985   10.2503 C   0  0  2  0  0  0  0  0  0  0  0  0
   26.2639   10.0895    9.5863 C   0  0  2  0  0  0  0  0  0  0  0  0
   27.5184   10.6394    8.9050 O   0  0  0  0  0  0  0  0  0  0  0  0
   25.7010   11.0880   10.6389 C   0  0  0  0  0  0  0  0  0  0  0  0
   26.6736   11.5617   11.5574 N   0  0  0  0  0  0  0  0  0  0  0  0
   25.8992   10.2648    2.7836 C   0  0  2  0  0  0  0  0  0  0  0  0
   25.7068   10.9814    1.4888 N   0  0  0  0  0  0  0  0  0  0  0  0
   25.6151   11.3258    3.9541 C   0  0  0  0  0  0  0  0  0  0  0  0
   25.7728   10.6431    5.3638 C   0  0  2  0  0  0  0  0  0  0  0  0
   25.5346   11.6104    6.4452 N   0  0  0  0  0  0  0  0  0  0  0  0
   27.1978   10.0778    5.5268 C   0  0  2  0  0  0  0  0  0  0  0  0
   27.5122    9.0298    4.3842 C   0  0  2  0  0  0  0  0  0  0  0  0
   28.8848    8.5462    4.6322 O   0  0  0  0  0  0  0  0  0  0  0  0
   27.4080    9.7700    2.9549 C   0  0  1  0  0  0  0  0  0  0  0  0
   27.6954    8.8342    1.9643 O   0  0  0  0  0  0  0  0  0  0  0  0
   29.9839    9.1849    4.4157 C   0  0  1  0  0  0  0  0  0  0  0  0
   30.1107    9.8558    3.0163 C   0  0  2  0  0  0  0  0  0  0  0  0
   30.7161    8.9456    2.1532 O   0  0  0  0  0  0  0  0  0  0  0  0
   31.0254   10.9507    3.3803 C   0  0  1  0  0  0  0  0  0  0  0  0
   30.6108   11.4832    4.7866 C   0  0  2  0  0  0  0  0  0  0  0  0
   30.2763   10.2510    5.3768 O   0  0  0  0  0  0  0  0  0  0  0  0
   29.5782   12.6091    4.8578 C   0  0  0  0  0  0  0  0  0  0  0  0
   28.4550   12.1637    4.1210 O   0  0  0  0  0  0  0  0  0  0  0  0
   32.9526   10.0545    2.1530 C   0  0  2  0  0  0  0  0  0  0  0  0
   32.4076   10.3714    3.3638 O   0  0  0  0  0  0  0  0  0  0  0  0
   34.3889   10.4766    2.0529 C   0  0  1  0  0  0  0  0  0  0  0  0
   31.7311   12.5377   -1.4537 N   0  0  0  0  0  0  0  0  0  0  0  0
   23.3486   11.1234   -1.4035 O   0  0  0  0  0  0  0  0  0  0  0  0
   34.9379   10.1272    0.6153 C   0  0  2  0  0  0  0  0  0  0  0  0
   34.1107   10.7745   -0.5489 C   0  0  1  0  0  0  0  0  0  0  0  0
   32.7360   10.3463   -0.4372 C   0  0  1  0  0  0  0  0  0  0  0  0
   32.1839   10.6708    0.9379 O   0  0  0  0  0  0  0  0  0  0  0  0
   31.8483   11.0157   -1.5760 C   0  0  0  0  0  0  0  0  0  0  0  0
   34.4962   11.8701    2.2349 N   0  0  0  0  0  0  0  0  0  0  0  0
   27.5489    6.7588    9.7582 O   0  0  0  0  0  0  0  0  0  0  0  0
   24.8786   12.5168   -0.4669 C   0  0  0  0  0  0  0  0  0  0  0  0
   34.1552   11.9156   -0.4329 O   0  0  0  0  0  0  0  0  0  0  0  0
   34.8722    8.9875    0.4742 O   0  0  0  0  0  0  0  0  0  0  0  0
   24.7612   10.3616    0.5037 C   0  0  0  0  0  0  0  0  0  0  0  0
   24.9157   13.2950   -1.6023 C   0  0  0  0  0  0  0  0  0  0  0  0
   24.6503   11.2573   -0.8368 C   0  0  1  0  0  0  0  0  0  0  0  0
   27.5643    8.9434   11.2842 F   0  0  0  0  0  0  0  0  0  0  0  0
  1  2  1  6  0  0  0
  1 10  1  0  0  0  0
  1  3  1  0  0  0  0
  3  4  1  6  0  0  0
  3  6  1  0  0  0  0
  5 46  2  0  0  0  0
  6 42  1  1  0  0  0
  6  8  1  0  0  0  0
  7 47  1  0  0  0  0
  8  9  1  0  0  0  0
  8 49  1  1  0  0  0
  9 10  1  0  0  0  0
  9 11  1  1  0  0  0
 11 12  1  0  0  0  0
 13 14  1  6  0  0  0
 13 15  1  0  0  0  0
 13 21  1  0  0  0  0
 14 46  1  0  0  0  0
 15 16  1  0  0  0  0
 16 17  1  1  0  0  0
 16 18  1  0  0  0  0
 18  2  1  1  0  0  0
 18 19  1  0  0  0  0
 19 20  1  1  0  0  0
 19 21  1  0  0  0  0
 21 22  1  6  0  0  0
 23 20  1  1  0  0  0
 23 24  1  0  0  0  0
 23 28  1  0  0  0  0
 24 25  1  6  0  0  0
 24 26  1  0  0  0  0
 26 27  1  0  0  0  0
 26 32  1  1  0  0  0
 27 28  1  0  0  0  0
 27 29  1  6  0  0  0
 29 30  1  0  0  0  0
 31 32  1  1  0  0  0
 31 33  1  0  0  0  0
 31 39  1  0  0  0  0
 33 36  1  0  0  0  0
 33 41  1  6  0  0  0
 34 40  1  0  0  0  0
 35 48  1  0  0  0  0
 36 37  1  0  0  0  0
 36 45  1  6  0  0  0
 37 38  1  0  0  0  0
 37 44  1  1  0  0  0
 38 39  1  0  0  0  0
 38 40  1  6  0  0  0
 43 47  1  0  0  0  0
 46 48  1  0  0  0  0
 48 43  1  1  0  0  0
M  END
>  <CHROM.1>
-139.24294252,-126.39658267,70.10449496,-126.58416889,-74.38590978,-48.41856122
70.99492794,53.91632063,136.99197306,-65.35693977,-46.09807758,-66.08768571
29.95636635,28.76600293,10.33137259,3.80989116,-1.97816315,0.08761332,-1.35975387

>  <Name>
ligand

>  <RI>
0

>  <Rbt.Current_Directory>
/home/itssahil/PROJECTS/Mol_Feturizer/New_Systems/rnas/4PDQ

>  <Rbt.Executable>
rbdock ($Id: //depot/dev/client3/rdock/2013.1/src/exe/rbdock.cxx#4 $)

>  <Rbt.Library>
libRbt.so (2013.1, Build901 2013/11/27)

>  <Rbt.Parameter_File>
/export/apps/rDock/src/rDock_2013.1_src/data/scripts/dock_solv.prm

>  <Rbt.Receptor>
prm/pocket_docking_2.prm

>  <SCORE>
18.5886

>  <SCORE.INTER>
5.5653

>  <SCORE.INTER.CONST>
1

>  <SCORE.INTER.POLAR>
0

>  <SCORE.INTER.ROT>
13

>  <SCORE.INTER.SOLV>
24.0782

>  <SCORE.INTER.VDW>
-16.5825

>  <SCORE.INTER.norm>
0.113578

>  <SCORE.INTRA>
6.28247

>  <SCORE.INTRA.DIHEDRAL>
-9.64692

>  <SCORE.INTRA.DIHEDRAL.0>
34.5115

>  <SCORE.INTRA.POLAR>
0

>  <SCORE.INTRA.POLAR.0>
0

>  <SCORE.INTRA.REPUL>
0

>  <SCORE.INTRA.REPUL.0>
0

>  <SCORE.INTRA.SOLV>
6.76055

>  <SCORE.INTRA.SOLV.lig_0>
-122.812

>  <SCORE.INTRA.VDW>
7.72566

>  <SCORE.INTRA.VDW.0>
-7.46208

>  <SCORE.INTRA.norm>
0.128214

>  <SCORE.RESTR>
6.74087

>  <SCORE.RESTR.CAVITY>
6.74087

>  <SCORE.RESTR.norm>
0.137569

>  <SCORE.SYSTEM>
0

>  <SCORE.SYSTEM.CONST>
0

>  <SCORE.SYSTEM.DIHEDRAL>
0

>  <SCORE.SYSTEM.SOLV>
0

>  <SCORE.SYSTEM.norm>
0

>  <SCORE.heavy>
49

>  <SCORE.norm>
0.37936

>  <RMSD>
9.493

$$$$
ligand
 OpenBabel11021811513D
libRbt.so/2013.1/901 2013/11/27
 49 52  0  0  0  0  0  0  0  0999 V2000
   26.7243    9.1356    6.7336 C   0  0  2  0  0  0  0  0  0  0  0  0
   26.4954   10.2806    5.9663 O   0  0  0  0  0  0  0  0  0  0  0  0
   25.4248    8.2483    6.7639 C   0  0  2  0  0  0  0  0  0  0  0  0
   25.0489    7.8661    5.3408 N   0  0  0  0  0  0  0  0  0  0  0  0
   23.4245    8.7294    0.4602 O   0  0  0  0  0  0  0  0  0  0  0  0
   24.2733    9.0031    7.4683 C   0  0  2  0  0  0  0  0  0  0  0  0
   25.4950   12.7272   -1.9922 N   0  0  0  0  0  0  0  0  0  0  0  0
   24.6837    9.3958    8.8962 C   0  0  2  0  0  0  0  0  0  0  0  0
   25.9942   10.2915    8.9062 C   0  0  2  0  0  0  0  0  0  0  0  0
   27.0868    9.5291    8.1543 O   0  0  0  0  0  0  0  0  0  0  0  0
   26.4351   10.6386   10.3577 C   0  0  0  0  0  0  0  0  0  0  0  0
   27.4666   11.6109   10.4266 N   0  0  0  0  0  0  0  0  0  0  0  0
   25.9640    9.2261    1.7939 C   0  0  2  0  0  0  0  0  0  0  0  0
   25.7650    9.3938    0.3244 N   0  0  0  0  0  0  0  0  0  0  0  0
   24.9279   10.2114    2.5234 C   0  0  0  0  0  0  0  0  0  0  0  0
   25.0537   10.0799    4.0871 C   0  0  2  0  0  0  0  0  0  0  0  0
   24.1232   10.9928    4.7672 N   0  0  0  0  0  0  0  0  0  0  0  0
   26.4866   10.4263    4.5385 C   0  0  2  0  0  0  0  0  0  0  0  0
   27.5351    9.4744    3.8332 C   0  0  2  0  0  0  0  0  0  0  0  0
   28.8637    9.8791    4.3336 O   0  0  0  0  0  0  0  0  0  0  0  0
   27.4309    9.6765    2.2364 C   0  0  1  0  0  0  0  0  0  0  0  0
   28.3656    8.8372    1.6352 O   0  0  0  0  0  0  0  0  0  0  0  0
   29.9083   10.1527    3.6288 C   0  0  1  0  0  0  0  0  0  0  0  0
   29.8740   11.5119    2.8700 C   0  0  2  0  0  0  0  0  0  0  0  0
   29.3381   11.2875    1.6041 O   0  0  0  0  0  0  0  0  0  0  0  0
   31.3231   11.7657    2.8094 C   0  0  1  0  0  0  0  0  0  0  0  0
   31.9527   11.3136    4.1631 C   0  0  2  0  0  0  0  0  0  0  0  0
   31.1688   10.1651    4.3750 O   0  0  0  0  0  0  0  0  0  0  0  0
   32.0379   12.3354    5.2978 C   0  0  0  0  0  0  0  0  0  0  0  0
   30.7056   12.7068    5.5974 O   0  0  0  0  0  0  0  0  0  0  0  0
   33.0754   11.3085    1.1529 C   0  0  2  0  0  0  0  0  0  0  0  0
   31.8415   10.9855    1.6394 O   0  0  0  0  0  0  0  0  0  0  0  0
   33.2107   10.9804   -0.3049 C   0  0  1  0  0  0  0  0  0  0  0  0
   38.1861   10.4629    1.8596 N   0  0  0  0  0  0  0  0  0  0  0  0
   23.3296    8.5076   -2.3884 O   0  0  0  0  0  0  0  0  0  0  0  0
   34.6720   11.3305   -0.7865 C   0  0  2  0  0  0  0  0  0  0  0  0
   35.7953   10.6017    0.0295 C   0  0  1  0  0  0  0  0  0  0  0  0
   35.6504   10.9402    1.4259 C   0  0  1  0  0  0  0  0  0  0  0  0
   34.2519   10.6131    1.9141 O   0  0  0  0  0  0  0  0  0  0  0  0
   36.7459   10.1857    2.2999 C   0  0  0  0  0  0  0  0  0  0  0  0
   33.0012    9.6020   -0.5109 N   0  0  0  0  0  0  0  0  0  0  0  0
   23.3552    8.3240    7.5138 O   0  0  0  0  0  0  0  0  0  0  0  0
   24.0516   10.6237   -1.9871 C   0  0  0  0  0  0  0  0  0  0  0  0
   35.6554    9.4692   -0.0949 O   0  0  0  0  0  0  0  0  0  0  0  0
   34.8364   12.4596   -0.6403 O   0  0  0  0  0  0  0  0  0  0  0  0
   24.3978    9.0948   -0.2142 C   0  0  0  0  0  0  0  0  0  0  0  0
   25.2215   11.3404   -1.8709 C   0  0  0  0  0  0  0  0  0  0  0  0
   24.3380    9.3343   -1.8112 C   0  0  1  0  0  0  0  0  0  0  0  0
   24.9371    8.2404    9.6566 F   0  0  0  0  0  0  0  0  0  0  0  0
  1  2  1  6  0  0  0
  1 10  1  0  0  0  0
  1  3  1  0  0  0  0
  3  4  1  6  0  0  0
  3  6  1  0  0  0  0
  5 46  2  0  0  0  0
  6 42  1  1  0  0  0
  6  8  1  0  0  0  0
  7 47  1  0  0  0  0
  8  9  1  0  0  0  0
  8 49  1  1  0  0  0
  9 10  1  0  0  0  0
  9 11  1  1  0  0  0
 11 12  1  0  0  0  0
 13 14  1  6  0  0  0
 13 15  1  0  0  0  0
 13 21  1  0  0  0  0
 14 46  1  0  0  0  0
 15 16  1  0  0  0  0
 16 17  1  1  0  0  0
 16 18  1  0  0  0  0
 18  2  1  1  0  0  0
 18 19  1  0  0  0  0
 19 20  1  1  0  0  0
 19 21  1  0  0  0  0
 21 22  1  6  0  0  0
 23 20  1  1  0  0  0
 23 24  1  0  0  0  0
 23 28  1  0  0  0  0
 24 25  1  6  0  0  0
 24 26  1  0  0  0  0
 26 27  1  0  0  0  0
 26 32  1  6  0  0  0
 27 28  1  0  0  0  0
 27 29  1  1  0  0  0
 29 30  1  0  0  0  0
 31 32  1  1  0  0  0
 31 33  1  0  0  0  0
 31 39  1  0  0  0  0
 33 36  1  0  0  0  0
 33 41  1  1  0  0  0
 34 40  1  0  0  0  0
 35 48  1  0  0  0  0
 36 37  1  0  0  0  0
 36 45  1  1  0  0  0
 37 38  1  0  0  0  0
 37 44  1  1  0  0  0
 38 39  1  0  0  0  0
 38 40  1  1  0  0  0
 43 47  1  0  0  0  0
 46 48  1  0  0  0  0
 48 43  1  1  0  0  0
M  END
>  <CHROM.1>
-78.84394391,86.62282485,-170.28896210,-59.29915401,-129.16744885,73.29388392
163.46955197,61.41758856,-152.67792475,56.60406058,178.63793512,-158.45922913
-27.68723978,28.69003013,10.21609852,3.19559230,-2.65233599,-0.13931820,-1.54741356

>  <Name>
ligand

>  <RI>
0

>  <Rbt.Current_Directory>
/home/itssahil/PROJECTS/Mol_Feturizer/New_Systems/rnas/4PDQ

>  <Rbt.Executable>
rbdock ($Id: //depot/dev/client3/rdock/2013.1/src/exe/rbdock.cxx#4 $)

>  <Rbt.Library>
libRbt.so (2013.1, Build901 2013/11/27)

>  <Rbt.Parameter_File>
/export/apps/rDock/src/rDock_2013.1_src/data/scripts/dock_solv.prm

>  <Rbt.Receptor>
prm/pocket_docking_2.prm

>  <SCORE>
3.76555

>  <SCORE.INTER>
-0.653263

>  <SCORE.INTER.CONST>
1

>  <SCORE.INTER.POLAR>
0

>  <SCORE.INTER.ROT>
13

>  <SCORE.INTER.SOLV>
23.1535

>  <SCORE.INTER.VDW>
-20.42

>  <SCORE.INTER.norm>
-0.0133319

>  <SCORE.INTRA>
0.374683

>  <SCORE.INTRA.DIHEDRAL>
-14.5187

>  <SCORE.INTRA.DIHEDRAL.0>
34.5115

>  <SCORE.INTRA.POLAR>
0

>  <SCORE.INTRA.POLAR.0>
0

>  <SCORE.INTRA.REPUL>
0.0185415

>  <SCORE.INTRA.REPUL.0>
0

>  <SCORE.INTRA.SOLV>
3.05056

>  <SCORE.INTRA.SOLV.lig_0>
-122.812

>  <SCORE.INTRA.VDW>
6.01603

>  <SCORE.INTRA.VDW.0>
-7.46208

>  <SCORE.INTRA.norm>
0.0076466

>  <SCORE.RESTR>
4.04413

>  <SCORE.RESTR.CAVITY>
4.04413

>  <SCORE.RESTR.norm>
0.0825332

>  <SCORE.SYSTEM>
0

>  <SCORE.SYSTEM.CONST>
0

>  <SCORE.SYSTEM.DIHEDRAL>
0

>  <SCORE.SYSTEM.SOLV>
0

>  <SCORE.SYSTEM.norm>
0

>  <SCORE.heavy>
49

>  <SCORE.norm>
0.0768479

>  <RMSD>
9.501

$$$$
ligand
 OpenBabel11021811513D
libRbt.so/2013.1/901 2013/11/27
 49 52  0  0  0  0  0  0  0  0999 V2000
   21.8759   17.9688    8.1428 C   0  0  2  0  0  0  0  0  0  0  0  0
   22.7762   17.8799    7.0781 O   0  0  0  0  0  0  0  0  0  0  0  0
   21.5029   19.4765    8.3981 C   0  0  2  0  0  0  0  0  0  0  0  0
   20.8887   20.0588    7.1347 N   0  0  0  0  0  0  0  0  0  0  0  0
   27.5688   14.6372    7.3085 O   0  0  0  0  0  0  0  0  0  0  0  0
   22.7533   20.2739    8.8370 C   0  0  2  0  0  0  0  0  0  0  0  0
   27.0957   12.6362    3.4623 N   0  0  0  0  0  0  0  0  0  0  0  0
   23.3671   19.6553   10.1028 C   0  0  2  0  0  0  0  0  0  0  0  0
   23.7551   18.1317    9.8840 C   0  0  2  0  0  0  0  0  0  0  0  0
   22.5041   17.3959    9.4006 O   0  0  0  0  0  0  0  0  0  0  0  0
   24.3243   17.4969   11.1858 C   0  0  0  0  0  0  0  0  0  0  0  0
   25.5171   18.1105   11.6490 N   0  0  0  0  0  0  0  0  0  0  0  0
   25.6628   15.2487    5.1948 C   0  0  2  0  0  0  0  0  0  0  0  0
   26.9447   14.5229    4.9558 N   0  0  0  0  0  0  0  0  0  0  0  0
   26.0406   16.7751    5.5168 C   0  0  0  0  0  0  0  0  0  0  0  0
   24.7370   17.6237    5.7592 C   0  0  2  0  0  0  0  0  0  0  0  0
   25.0709   19.0203    6.0752 N   0  0  0  0  0  0  0  0  0  0  0  0
   23.9322   17.0410    6.9381 C   0  0  2  0  0  0  0  0  0  0  0  0
   23.5467   15.5332    6.6542 C   0  0  2  0  0  0  0  0  0  0  0  0
   22.7788   15.0741    7.8285 O   0  0  0  0  0  0  0  0  0  0  0  0
   24.8999   14.6740    6.4748 C   0  0  1  0  0  0  0  0  0  0  0  0
   24.5399   13.3504    6.2340 O   0  0  0  0  0  0  0  0  0  0  0  0
   23.2522   14.5719    8.9177 C   0  0  1  0  0  0  0  0  0  0  0  0
   22.2023   14.2283   10.0151 C   0  0  2  0  0  0  0  0  0  0  0  0
   22.0580   15.3414   10.8398 O   0  0  0  0  0  0  0  0  0  0  0  0
   22.9364   13.1444   10.6890 C   0  0  1  0  0  0  0  0  0  0  0  0
   23.6584   12.2948    9.5978 C   0  0  2  0  0  0  0  0  0  0  0  0
   24.0341   13.3458    8.7418 O   0  0  0  0  0  0  0  0  0  0  0  0
   22.9046   11.1137    8.9850 C   0  0  0  0  0  0  0  0  0  0  0  0
   22.8223   10.1280    9.9972 O   0  0  0  0  0  0  0  0  0  0  0  0
   24.6365   13.0038   12.4535 C   0  0  2  0  0  0  0  0  0  0  0  0
   23.8919   13.8046   11.6363 O   0  0  0  0  0  0  0  0  0  0  0  0
   25.7379   13.7613   13.1347 C   0  0  1  0  0  0  0  0  0  0  0  0
   27.6886    8.7633   12.4581 N   0  0  0  0  0  0  0  0  0  0  0  0
   30.0476   13.4039    6.8462 O   0  0  0  0  0  0  0  0  0  0  0  0
   26.5864   12.7679   14.0198 C   0  0  2  0  0  0  0  0  0  0  0  0
   27.1875   11.5641   13.2146 C   0  0  1  0  0  0  0  0  0  0  0  0
   26.1091   10.8458   12.5770 C   0  0  1  0  0  0  0  0  0  0  0  0
   25.2767   11.7798   11.7192 O   0  0  0  0  0  0  0  0  0  0  0  0
   26.6782    9.6381   11.7106 C   0  0  0  0  0  0  0  0  0  0  0  0
   26.5964   14.3330   12.1742 N   0  0  0  0  0  0  0  0  0  0  0  0
   22.4491   21.3538    9.0552 O   0  0  0  0  0  0  0  0  0  0  0  0
   28.7670   12.2666    5.3540 C   0  0  0  0  0  0  0  0  0  0  0  0
   27.8849   11.9832   12.4050 O   0  0  0  0  0  0  0  0  0  0  0  0
   25.8920   12.3179   14.8189 O   0  0  0  0  0  0  0  0  0  0  0  0
   27.8237   14.2868    6.1476 C   0  0  0  0  0  0  0  0  0  0  0  0
   28.3563   12.3396    4.0418 C   0  0  0  0  0  0  0  0  0  0  0  0
   29.1618   13.4819    5.7314 C   0  0  1  0  0  0  0  0  0  0  0  0
   22.4475   19.7250   11.1643 F   0  0  0  0  0  0  0  0  0  0  0  0
  1  2  1  6  0  0  0
  1 10  1  0  0  0  0
  1  3  1  0  0  0  0
  3  4  1  6  0  0  0
  3  6  1  0  0  0  0
  5 46  2  0  0  0  0
  6 42  1  1  0  0  0
  6  8  1  0  0  0  0
  7 47  1  0  0  0  0
  8  9  1  0  0  0  0
  8 49  1  1  0  0  0
  9 10  1  0  0  0  0
  9 11  1  1  0  0  0
 11 12  1  0  0  0  0
 13 14  1  1  0  0  0
 13 15  1  0  0  0  0
 13 21  1  0  0  0  0
 14 46  1  0  0  0  0
 15 16  1  0  0  0  0
 16 17  1  1  0  0  0
 16 18  1  0  0  0  0
 18  2  1  6  0  0  0
 18 19  1  0  0  0  0
 19 20  1  1  0  0  0
 19 21  1  0  0  0  0
 21 22  1  6  0  0  0
 23 20  1  6  0  0  0
 23 24  1  0  0  0  0
 23 28  1  0  0  0  0
 24 25  1  1  0  0  0
 24 26  1  0  0  0  0
 26 27  1  0  0  0  0
 26 32  1  1  0  0  0
 27 28  1  0  0  0  0
 27 29  1  6  0  0  0
 29 30  1  0  0  0  0
 31 32  1  6  0  0  0
 31 33  1  0  0  0  0
 31 39  1  0  0  0  0
 33 36  1  0  0  0  0
 33 41  1  6  0  0  0
 34 40  1  0  0  0  0
 35 48  1  0  0  0  0
 36 37  1  0  0  0  0
 36 45  1  1  0  0  0
 37 38  1  0  0  0  0
 37 44  1  6  0  0  0
 38 39  1  0  0  0  0
 38 40  1  6  0  0  0
 43 47  1  0  0  0  0
 46 48  1  0  0  0  0
 48 43  1  1  0  0  0
M  END
>  <CHROM.1>
139.29663028,-165.35260991,-61.79891692,70.82045789,-87.10946431,177.60470973
175.78175475,-70.65778987,168.14201790,48.67615997,-88.55610800,-157.84338961
-7.48472340,24.85887015,14.86754711,9.06984254,2.33158579,0.94157702,-1.04731840

>  <Name>
ligand

>  <RI>
0

>  <Rbt.Current_Directory>
/home/itssahil/PROJECTS/Mol_Feturizer/New_Systems/rnas/4PDQ

>  <Rbt.Executable>
rbdock ($Id: //depot/dev/client3/rdock/2013.1/src/exe/rbdock.cxx#4 $)

>  <Rbt.Library>
libRbt.so (2013.1, Build901 2013/11/27)

>  <Rbt.Parameter_File>
/export/apps/rDock/src/rDock_2013.1_src/data/scripts/dock_solv.prm

>  <Rbt.Receptor>
prm/blind_docking_40.prm

>  <SCORE>
0.578539

>  <SCORE.INTER>
0.226687

>  <SCORE.INTER.CONST>
1

>  <SCORE.INTER.POLAR>
0

>  <SCORE.INTER.ROT>
13

>  <SCORE.INTER.SOLV>
28.6389

>  <SCORE.INTER.VDW>
-21.6618

>  <SCORE.INTER.norm>
0.00462626

>  <SCORE.INTRA>
-3.23281

>  <SCORE.INTRA.DIHEDRAL>
-18.1457

>  <SCORE.INTRA.DIHEDRAL.0>
34.5115

>  <SCORE.INTRA.POLAR>
0

>  <SCORE.INTRA.POLAR.0>
0

>  <SCORE.INTRA.REPUL>
0

>  <SCORE.INTRA.REPUL.0>
0

>  <SCORE.INTRA.SOLV>
4.22424

>  <SCORE.INTRA.SOLV.lig_0>
-122.812

>  <SCORE.INTRA.VDW>
3.72792

>  <SCORE.INTRA.VDW.0>
-7.46208

>  <SCORE.INTRA.norm>
-0.0659758

>  <SCORE.RESTR>
3.58466

>  <SCORE.RESTR.CAVITY>
3.58466

>  <SCORE.RESTR.norm>
0.0731564

>  <SCORE.SYSTEM>
0

>  <SCORE.SYSTEM.CONST>
0

>  <SCORE.SYSTEM.DIHEDRAL>
0

>  <SCORE.SYSTEM.SOLV>
0

>  <SCORE.SYSTEM.norm>
0

>  <SCORE.heavy>
49

>  <SCORE.norm>
0.0118069

>  <RMSD>
9.512

$$$$
ligand
 OpenBabel11021811513D
libRbt.so/2013.1/901 2013/11/27
 49 52  0  0  0  0  0  0  0  0999 V2000
   27.8819   10.9407    4.6996 C   0  0  2  0  0  0  0  0  0  0  0  0
   28.4172   10.5664    3.4646 O   0  0  0  0  0  0  0  0  0  0  0  0
   28.8573   10.5044    5.8552 C   0  0  2  0  0  0  0  0  0  0  0  0
   30.2102   11.1652    5.6417 N   0  0  0  0  0  0  0  0  0  0  0  0
   25.1323   11.3405   -2.2874 O   0  0  0  0  0  0  0  0  0  0  0  0
   28.9828    8.9636    5.9011 C   0  0  2  0  0  0  0  0  0  0  0  0
   27.2719   12.8336   -7.3416 N   0  0  0  0  0  0  0  0  0  0  0  0
   27.6020    8.3184    6.0974 C   0  0  2  0  0  0  0  0  0  0  0  0
   26.5885    8.7376    4.9499 C   0  0  2  0  0  0  0  0  0  0  0  0
   26.5379   10.2659    4.9068 O   0  0  0  0  0  0  0  0  0  0  0  0
   25.1773    8.1255    5.1855 C   0  0  0  0  0  0  0  0  0  0  0  0
   24.2768    8.3289    4.1077 N   0  0  0  0  0  0  0  0  0  0  0  0
   27.5702   11.4325   -0.6990 C   0  0  2  0  0  0  0  0  0  0  0  0
   27.3797   12.2207   -1.9518 N   0  0  0  0  0  0  0  0  0  0  0  0
   26.7950   12.2136    0.4695 C   0  0  0  0  0  0  0  0  0  0  0  0
   26.9242   11.4332    1.8306 C   0  0  2  0  0  0  0  0  0  0  0  0
   26.2348   12.1495    2.9139 N   0  0  0  0  0  0  0  0  0  0  0  0
   28.4082   11.2813    2.2202 C   0  0  2  0  0  0  0  0  0  0  0  0
   29.2034   10.5177    1.0855 C   0  0  2  0  0  0  0  0  0  0  0  0
   30.5998   10.4179    1.5542 O   0  0  0  0  0  0  0  0  0  0  0  0
   29.1101   11.3703   -0.2804 C   0  0  1  0  0  0  0  0  0  0  0  0
   29.8218   10.6867   -1.2632 O   0  0  0  0  0  0  0  0  0  0  0  0
   31.4121    9.4335    1.3695 C   0  0  1  0  0  0  0  0  0  0  0  0
   30.8502    8.0216    1.7089 C   0  0  2  0  0  0  0  0  0  0  0  0
   31.1507    7.7446    3.0404 O   0  0  0  0  0  0  0  0  0  0  0  0
   31.6809    7.2280    0.7880 C   0  0  1  0  0  0  0  0  0  0  0  0
   31.8294    8.0270   -0.5436 C   0  0  2  0  0  0  0  0  0  0  0  0
   31.9385    9.3165    0.0076 O   0  0  0  0  0  0  0  0  0  0  0  0
   30.7843    7.8080   -1.6385 C   0  0  0  0  0  0  0  0  0  0  0  0
   30.8279    6.4301   -1.9579 O   0  0  0  0  0  0  0  0  0  0  0  0
   33.9918    6.4015    0.7787 C   0  0  2  0  0  0  0  0  0  0  0  0
   32.9911    7.0081    1.4816 O   0  0  0  0  0  0  0  0  0  0  0  0
   35.1149    5.9546    1.6674 C   0  0  1  0  0  0  0  0  0  0  0  0
   37.1994    7.0616   -3.2904 N   0  0  0  0  0  0  0  0  0  0  0  0
   26.3705   14.3260   -3.6601 O   0  0  0  0  0  0  0  0  0  0  0  0
   36.2549    5.3109    0.7864 C   0  0  2  0  0  0  0  0  0  0  0  0
   36.8059    6.2677   -0.3271 C   0  0  1  0  0  0  0  0  0  0  0  0
   35.7099    6.6759   -1.1742 C   0  0  1  0  0  0  0  0  0  0  0  0
   34.5989    7.2985   -0.3502 O   0  0  0  0  0  0  0  0  0  0  0  0
   36.2167    7.6855   -2.2954 C   0  0  0  0  0  0  0  0  0  0  0  0
   35.6611    7.0610    2.3485 N   0  0  0  0  0  0  0  0  0  0  0  0
   29.6625    8.6706    6.7720 O   0  0  0  0  0  0  0  0  0  0  0  0
   26.8757   12.4579   -4.8496 C   0  0  0  0  0  0  0  0  0  0  0  0
   37.2487    7.1967    0.1813 O   0  0  0  0  0  0  0  0  0  0  0  0
   35.8165    4.3940    0.2476 O   0  0  0  0  0  0  0  0  0  0  0  0
   26.0677   12.0627   -2.6606 C   0  0  0  0  0  0  0  0  0  0  0  0
   26.6789   13.0591   -6.0726 C   0  0  0  0  0  0  0  0  0  0  0  0
   26.0092   12.9856   -3.9859 C   0  0  1  0  0  0  0  0  0  0  0  0
   27.0573    8.7185    7.3305 F   0  0  0  0  0  0  0  0  0  0  0  0
  1  2  1  6  0  0  0
  1 10  1  0  0  0  0
  1  3  1  0  0  0  0
  3  4  1  6  0  0  0
  3  6  1  0  0  0  0
  5 46  2  0  0  0  0
  6 42  1  1  0  0  0
  6  8  1  0  0  0  0
  7 47  1  0  0  0  0
  8  9  1  0  0  0  0
  8 49  1  1  0  0  0
  9 10  1  0  0  0  0
  9 11  1  1  0  0  0
 11 12  1  0  0  0  0
 13 14  1  6  0  0  0
 13 15  1  0  0  0  0
 13 21  1  0  0  0  0
 14 46  1  0  0  0  0
 15 16  1  0  0  0  0
 16 17  1  1  0  0  0
 16 18  1  0  0  0  0
 18  2  1  1  0  0  0
 18 19  1  0  0  0  0
 19 20  1  1  0  0  0
 19 21  1  0  0  0  0
 21 22  1  6  0  0  0
 23 20  1  6  0  0  0
 23 24  1  0  0  0  0
 23 28  1  0  0  0  0
 24 25  1  1  0  0  0
 24 26  1  0  0  0  0
 26 27  1  0  0  0  0
 26 32  1  1  0  0  0
 27 28  1  0  0  0  0
 27 29  1  6  0  0  0
 29 30  1  0  0  0  0
 31 32  1  1  0  0  0
 31 33  1  0  0  0  0
 31 39  1  0  0  0  0
 33 36  1  0  0  0  0
 33 41  1  6  0  0  0
 34 40  1  0  0  0  0
 35 48  1  0  0  0  0
 36 37  1  0  0  0  0
 36 45  1  6  0  0  0
 37 38  1  0  0  0  0
 37 44  1  1  0  0  0
 38 39  1  0  0  0  0
 38 40  1  6  0  0  0
 43 47  1  0  0  0  0
 46 48  1  0  0  0  0
 48 43  1  6  0  0  0
M  END
>  <CHROM.1>
-140.76362170,-62.49350695,-172.59482053,-79.21179905,143.85619351,-49.01820730
-173.83275898,-59.01820091,-166.50931524,64.96360862,-176.39857581,-71.53752190
127.97732749,30.12268474,9.33851275,0.90674038,3.06784967,0.49917910,-1.29855164

>  <Name>
ligand

>  <RI>
0

>  <Rbt.Current_Directory>
/home/itssahil/PROJECTS/Mol_Feturizer/New_Systems/rnas/4PDQ

>  <Rbt.Executable>
rbdock ($Id: //depot/dev/client3/rdock/2013.1/src/exe/rbdock.cxx#4 $)

>  <Rbt.Library>
libRbt.so (2013.1, Build901 2013/11/27)

>  <Rbt.Parameter_File>
/export/apps/rDock/src/rDock_2013.1_src/data/scripts/dock_solv.prm

>  <Rbt.Receptor>
prm/pocket_docking_7.prm

>  <SCORE>
-12.6306

>  <SCORE.INTER>
-3.58927

>  <SCORE.INTER.CONST>
1

>  <SCORE.INTER.POLAR>
0

>  <SCORE.INTER.ROT>
13

>  <SCORE.INTER.SOLV>
20.2211

>  <SCORE.INTER.VDW>
-21.3999

>  <SCORE.INTER.norm>
-0.0732504

>  <SCORE.INTRA>
-9.04736

>  <SCORE.INTRA.DIHEDRAL>
-20.8225

>  <SCORE.INTRA.DIHEDRAL.0>
34.5115

>  <SCORE.INTRA.POLAR>
0

>  <SCORE.INTRA.POLAR.0>
0

>  <SCORE.INTRA.REPUL>
0

>  <SCORE.INTRA.REPUL.0>
0

>  <SCORE.INTRA.SOLV>
-2.28899

>  <SCORE.INTRA.SOLV.lig_0>
-122.812

>  <SCORE.INTRA.VDW>
2.50839

>  <SCORE.INTRA.VDW.0>
-7.46208

>  <SCORE.INTRA.norm>
-0.18464

>  <SCORE.RESTR>
0.00602457

>  <SCORE.RESTR.CAVITY>
0.00602457

>  <SCORE.RESTR.norm>
0.00012295

>  <SCORE.SYSTEM>
0

>  <SCORE.SYSTEM.CONST>
0

>  <SCORE.SYSTEM.DIHEDRAL>
0

>  <SCORE.SYSTEM.SOLV>
0

>  <SCORE.SYSTEM.norm>
0

>  <SCORE.heavy>
49

>  <SCORE.norm>
-0.257767

>  <RMSD>
9.514

$$$$
ligand
 OpenBabel11021811513D
libRbt.so/2013.1/901 2013/11/27
 49 52  0  0  0  0  0  0  0  0999 V2000
   28.8849    9.1537    6.4141 C   0  0  2  0  0  0  0  0  0  0  0  0
   27.7335    9.6863    5.8290 O   0  0  0  0  0  0  0  0  0  0  0  0
   28.6240    8.8743    7.9409 C   0  0  2  0  0  0  0  0  0  0  0  0
   27.4619    7.9032    8.0784 N   0  0  0  0  0  0  0  0  0  0  0  0
   26.9947   11.9856    0.6319 O   0  0  0  0  0  0  0  0  0  0  0  0
   28.3451   10.1978    8.6907 C   0  0  2  0  0  0  0  0  0  0  0  0
   25.1420   12.9762   -4.1078 N   0  0  0  0  0  0  0  0  0  0  0  0
   29.5236   11.1694    8.5207 C   0  0  2  0  0  0  0  0  0  0  0  0
   29.8186   11.4742    6.9911 C   0  0  2  0  0  0  0  0  0  0  0  0
   30.0345   10.1363    6.2814 O   0  0  0  0  0  0  0  0  0  0  0  0
   31.0475   12.4142    6.8249 C   0  0  0  0  0  0  0  0  0  0  0  0
   31.2427   12.8733    5.4963 N   0  0  0  0  0  0  0  0  0  0  0  0
   25.6195    9.8447    2.0462 C   0  0  2  0  0  0  0  0  0  0  0  0
   25.2372   10.2983    0.6769 N   0  0  0  0  0  0  0  0  0  0  0  0
   25.7672   11.1612    2.9526 C   0  0  0  0  0  0  0  0  0  0  0  0
   26.1474   10.7708    4.4295 C   0  0  2  0  0  0  0  0  0  0  0  0
   26.3054   11.9700    5.2654 N   0  0  0  0  0  0  0  0  0  0  0  0
   27.4764    9.9895    4.4499 C   0  0  2  0  0  0  0  0  0  0  0  0
   27.3661    8.6855    3.5609 C   0  0  2  0  0  0  0  0  0  0  0  0
   28.6758    8.0104    3.6521 O   0  0  0  0  0  0  0  0  0  0  0  0
   27.0410    9.1167    2.0411 C   0  0  1  0  0  0  0  0  0  0  0  0
   26.9558    7.9572    1.2743 O   0  0  0  0  0  0  0  0  0  0  0  0
   29.7415    8.2898    2.9820 C   0  0  1  0  0  0  0  0  0  0  0  0
   30.1970    9.7781    3.0276 C   0  0  2  0  0  0  0  0  0  0  0  0
   29.6041   10.4452    1.9584 O   0  0  0  0  0  0  0  0  0  0  0  0
   31.6384    9.5729    2.8080 C   0  0  1  0  0  0  0  0  0  0  0  0
   32.0733    8.2980    3.5948 C   0  0  2  0  0  0  0  0  0  0  0  0
   30.9272    7.5171    3.3601 O   0  0  0  0  0  0  0  0  0  0  0  0
   32.5355    8.4648    5.0430 C   0  0  0  0  0  0  0  0  0  0  0  0
   33.5045    9.4962    5.0334 O   0  0  0  0  0  0  0  0  0  0  0  0
   32.1789   10.5462    0.6208 C   0  0  2  0  0  0  0  0  0  0  0  0
   31.8259    9.4330    1.3276 O   0  0  0  0  0  0  0  0  0  0  0  0
   31.6273   10.5270   -0.7744 C   0  0  1  0  0  0  0  0  0  0  0  0
   36.4729   10.8798   -0.8364 N   0  0  0  0  0  0  0  0  0  0  0  0
   24.1607   12.2238   -1.3414 O   0  0  0  0  0  0  0  0  0  0  0  0
   32.1149   11.8133   -1.5475 C   0  0  2  0  0  0  0  0  0  0  0  0
   33.6748   11.9662   -1.5941 C   0  0  1  0  0  0  0  0  0  0  0  0
   34.1806   11.9920   -0.2417 C   0  0  1  0  0  0  0  0  0  0  0  0
   33.7249   10.7644    0.5242 O   0  0  0  0  0  0  0  0  0  0  0  0
   35.7683   12.1023   -0.2413 C   0  0  0  0  0  0  0  0  0  0  0  0
   32.1031    9.3948   -1.4660 N   0  0  0  0  0  0  0  0  0  0  0  0
   28.1996    9.9733    9.8019 O   0  0  0  0  0  0  0  0  0  0  0  0
   26.3099   12.7545   -1.8505 C   0  0  0  0  0  0  0  0  0  0  0  0
   34.1113   11.0539   -2.1368 O   0  0  0  0  0  0  0  0  0  0  0  0
   31.7080   12.7377   -0.9970 O   0  0  0  0  0  0  0  0  0  0  0  0
   26.0403   11.4168    0.0830 C   0  0  0  0  0  0  0  0  0  0  0  0
   26.2328   12.7664   -3.2252 C   0  0  0  0  0  0  0  0  0  0  0  0
   25.5158   11.7837   -1.4008 C   0  0  1  0  0  0  0  0  0  0  0  0
   30.6853   10.6174    9.0892 F   0  0  0  0  0  0  0  0  0  0  0  0
  1  2  1  1  0  0  0
  1 10  1  0  0  0  0
  1  3  1  0  0  0  0
  3  4  1  6  0  0  0
  3  6  1  0  0  0  0
  5 46  2  0  0  0  0
  6 42  1  1  0  0  0
  6  8  1  0  0  0  0
  7 47  1  0  0  0  0
  8  9  1  0  0  0  0
  8 49  1  6  0  0  0
  9 10  1  0  0  0  0
  9 11  1  1  0  0  0
 11 12  1  0  0  0  0
 13 14  1  6  0  0  0
 13 15  1  0  0  0  0
 13 21  1  0  0  0  0
 14 46  1  0  0  0  0
 15 16  1  0  0  0  0
 16 17  1  1  0  0  0
 16 18  1  0  0  0  0
 18  2  1  1  0  0  0
 18 19  1  0  0  0  0
 19 20  1  6  0  0  0
 19 21  1  0  0  0  0
 21 22  1  6  0  0  0
 23 20  1  1  0  0  0
 23 24  1  0  0  0  0
 23 28  1  0  0  0  0
 24 25  1  6  0  0  0
 24 26  1  0  0  0  0
 26 27  1  0  0  0  0
 26 32  1  6  0  0  0
 27 28  1  0  0  0  0
 27 29  1  1  0  0  0
 29 30  1  0  0  0  0
 31 32  1  6  0  0  0
 31 33  1  0  0  0  0
 31 39  1  0  0  0  0
 33 36  1  0  0  0  0
 33 41  1  6  0  0  0
 34 40  1  0  0  0  0
 35 48  1  0  0  0  0
 36 37  1  0  0  0  0
 36 45  1  1  0  0  0
 37 38  1  0  0  0  0
 37 44  1  6  0  0  0
 38 39  1  0  0  0  0
 38 40  1  6  0  0  0
 43 47  1  0  0  0  0
 46 48  1  0  0  0  0
 48 43  1  1  0  0  0
M  END
>  <CHROM.1>
-174.44948835,-170.56251025,-171.51684137,48.06134086,-81.52060011,52.61662043
95.71455839,-50.28469793,-148.43294899,-65.25063160,60.75841233,-81.95173125
-119.31353135,29.58686261,10.46623935,2.67806854,1.72826308,-0.04201109,1.76787993

>  <Name>
ligand

>  <RI>
0

>  <Rbt.Current_Directory>
/home/itssahil/PROJECTS/Mol_Feturizer/New_Systems/rnas/4PDQ

>  <Rbt.Executable>
rbdock ($Id: //depot/dev/client3/rdock/2013.1/src/exe/rbdock.cxx#4 $)

>  <Rbt.Library>
libRbt.so (2013.1, Build901 2013/11/27)

>  <Rbt.Parameter_File>
/export/apps/rDock/src/rDock_2013.1_src/data/scripts/dock_solv.prm

>  <Rbt.Receptor>
prm/pocket_docking_4.prm

>  <SCORE>
-11.109

>  <SCORE.INTER>
-5.30795

>  <SCORE.INTER.CONST>
1

>  <SCORE.INTER.POLAR>
0

>  <SCORE.INTER.ROT>
13

>  <SCORE.INTER.SOLV>
16.7623

>  <SCORE.INTER.VDW>
-21.3927

>  <SCORE.INTER.norm>
-0.108326

>  <SCORE.INTRA>
-6.19276

>  <SCORE.INTRA.DIHEDRAL>
-19.8739

>  <SCORE.INTRA.DIHEDRAL.0>
34.5115

>  <SCORE.INTRA.POLAR>
0

>  <SCORE.INTRA.POLAR.0>
0

>  <SCORE.INTRA.REPUL>
0.161613

>  <SCORE.INTRA.REPUL.0>
0

>  <SCORE.INTRA.SOLV>
0.329384

>  <SCORE.INTRA.SOLV.lig_0>
-122.812

>  <SCORE.INTRA.VDW>
2.77144

>  <SCORE.INTRA.VDW.0>
-7.46208

>  <SCORE.INTRA.norm>
-0.126383

>  <SCORE.RESTR>
0.39171

>  <SCORE.RESTR.CAVITY>
0.39171

>  <SCORE.RESTR.norm>
0.00799408

>  <SCORE.SYSTEM>
0

>  <SCORE.SYSTEM.CONST>
0

>  <SCORE.SYSTEM.DIHEDRAL>
0

>  <SCORE.SYSTEM.SOLV>
0

>  <SCORE.SYSTEM.norm>
0

>  <SCORE.heavy>
49

>  <SCORE.norm>
-0.226714

>  <RMSD>
9.530

$$$$
ligand
 OpenBabel11021811513D
libRbt.so/2013.1/901 2013/11/27
 49 52  0  0  0  0  0  0  0  0999 V2000
   27.3226    9.0450    6.2146 C   0  0  2  0  0  0  0  0  0  0  0  0
   26.4348    8.3443    5.3943 O   0  0  0  0  0  0  0  0  0  0  0  0
   27.5768    8.2321    7.5381 C   0  0  2  0  0  0  0  0  0  0  0  0
   28.1472    6.8679    7.1835 N   0  0  0  0  0  0  0  0  0  0  0  0
   24.4428   10.3509    0.3476 O   0  0  0  0  0  0  0  0  0  0  0  0
   26.2671    8.1023    8.3504 C   0  0  2  0  0  0  0  0  0  0  0  0
   24.2171   12.0399   -3.6150 N   0  0  0  0  0  0  0  0  0  0  0  0
   25.6998    9.4921    8.6794 C   0  0  2  0  0  0  0  0  0  0  0  0
   25.4319   10.3437    7.3669 C   0  0  2  0  0  0  0  0  0  0  0  0
   26.7376   10.3996    6.5717 O   0  0  0  0  0  0  0  0  0  0  0  0
   24.9103   11.7691    7.7100 C   0  0  0  0  0  0  0  0  0  0  0  0
   25.8849   12.6070    8.3117 N   0  0  0  0  0  0  0  0  0  0  0  0
   25.5486    7.7918    1.1857 C   0  0  2  0  0  0  0  0  0  0  0  0
   24.9289    8.0162   -0.1532 N   0  0  0  0  0  0  0  0  0  0  0  0
   24.3637    7.8491    2.2670 C   0  0  0  0  0  0  0  0  0  0  0  0
   24.9288    7.5961    3.7143 C   0  0  2  0  0  0  0  0  0  0  0  0
   23.8554    7.6663    4.7167 N   0  0  0  0  0  0  0  0  0  0  0  0
   25.9888    8.6587    4.0669 C   0  0  2  0  0  0  0  0  0  0  0  0
   27.1712    8.6316    3.0161 C   0  0  2  0  0  0  0  0  0  0  0  0
   28.1285    9.6711    3.4433 O   0  0  0  0  0  0  0  0  0  0  0  0
   26.5760    8.9580    1.5531 C   0  0  1  0  0  0  0  0  0  0  0  0
   27.6318    8.9373    0.6451 O   0  0  0  0  0  0  0  0  0  0  0  0
   29.1466   10.1074    2.7830 C   0  0  1  0  0  0  0  0  0  0  0  0
   29.7306   11.4683    3.2639 C   0  0  2  0  0  0  0  0  0  0  0  0
   29.0993   12.4859    2.5527 O   0  0  0  0  0  0  0  0  0  0  0  0
   31.1220   11.2783    2.8212 C   0  0  1  0  0  0  0  0  0  0  0  0
   31.5177    9.7927    3.0857 C   0  0  2  0  0  0  0  0  0  0  0  0
   30.2916    9.1948    2.7425 O   0  0  0  0  0  0  0  0  0  0  0  0
   32.1266    9.4374    4.4428 C   0  0  0  0  0  0  0  0  0  0  0  0
   33.2325   10.3025    4.6196 O   0  0  0  0  0  0  0  0  0  0  0  0
   32.3083   11.3925    0.6757 C   0  0  2  0  0  0  0  0  0  0  0  0
   31.1567   11.6376    1.3666 O   0  0  0  0  0  0  0  0  0  0  0  0
   32.2462   11.9168   -0.7287 C   0  0  1  0  0  0  0  0  0  0  0  0
   34.2464    7.3717    1.2966 N   0  0  0  0  0  0  0  0  0  0  0  0
   23.0199    8.3014   -2.2017 O   0  0  0  0  0  0  0  0  0  0  0  0
   33.5848   11.5549   -1.4819 C   0  0  2  0  0  0  0  0  0  0  0  0
   33.9011   10.0192   -1.5007 C   0  0  1  0  0  0  0  0  0  0  0  0
   33.9654    9.5404   -0.1398 C   0  0  1  0  0  0  0  0  0  0  0  0
   32.6887    9.8766    0.6073 O   0  0  0  0  0  0  0  0  0  0  0  0
   34.2416    7.9733   -0.1116 C   0  0  0  0  0  0  0  0  0  0  0  0
   31.1777   11.3138   -1.4223 N   0  0  0  0  0  0  0  0  0  0  0  0
   26.4859    7.5449    9.3240 O   0  0  0  0  0  0  0  0  0  0  0  0
   22.9928   10.5575   -1.9381 C   0  0  0  0  0  0  0  0  0  0  0  0
   33.0454    9.4806   -2.0442 O   0  0  0  0  0  0  0  0  0  0  0  0
   34.4555   12.0654   -0.9301 O   0  0  0  0  0  0  0  0  0  0  0  0
   24.3999    9.3909   -0.4348 C   0  0  0  0  0  0  0  0  0  0  0  0
   23.7562   11.6319   -2.3367 C   0  0  0  0  0  0  0  0  0  0  0  0
   23.7746    9.4786   -1.9223 C   0  0  1  0  0  0  0  0  0  0  0  0
   26.6084   10.2021    9.4842 F   0  0  0  0  0  0  0  0  0  0  0  0
  1  2  1  6  0  0  0
  1 10  1  0  0  0  0
  1  3  1  0  0  0  0
  3  4  1  6  0  0  0
  3  6  1  0  0  0  0
  5 46  2  0  0  0  0
  6 42  1  1  0  0  0
  6  8  1  0  0  0  0
  7 47  1  0  0  0  0
  8  9  1  0  0  0  0
  8 49  1  1  0  0  0
  9 10  1  0  0  0  0
  9 11  1  1  0  0  0
 11 12  1  0  0  0  0
 13 14  1  6  0  0  0
 13 15  1  0  0  0  0
 13 21  1  0  0  0  0
 14 46  1  0  0  0  0
 15 16  1  0  0  0  0
 16 17  1  1  0  0  0
 16 18  1  0  0  0  0
 18  2  1  1  0  0  0
 18 19  1  0  0  0  0
 19 20  1  1  0  0  0
 19 21  1  0  0  0  0
 21 22  1  6  0  0  0
 23 20  1  1  0  0  0
 23 24  1  0  0  0  0
 23 28  1  0  0  0  0
 24 25  1  6  0  0  0
 24 26  1  0  0  0  0
 26 27  1  0  0  0  0
 26 32  1  6  0  0  0
 27 28  1  0  0  0  0
 27 29  1  1  0  0  0
 29 30  1  0  0  0  0
 31 32  1  6  0  0  0
 31 33  1  0  0  0  0
 31 39  1  0  0  0  0
 33 36  1  0  0  0  0
 33 41  1  6  0  0  0
 34 40  1  0  0  0  0
 35 48  1  0  0  0  0
 36 37  1  0  0  0  0
 36 45  1  1  0  0  0
 37 38  1  0  0  0  0
 37 44  1  6  0  0  0
 38 39  1  0  0  0  0
 38 40  1  6  0  0  0
 43 47  1  0  0  0  0
 46 48  1  0  0  0  0
 48 43  1  1  0  0  0
M  END
>  <CHROM.1>
-175.53997378,-175.34413698,69.54378047,69.46105208,-170.32995410,162.69834520
-172.33060382,-54.17588800,-174.63529282,-176.75599662,77.52861169,-150.14000079
-139.23065072,28.31455423,9.74118516,2.61673468,-2.33542353,-0.08422576,-1.48193387

>  <Name>
ligand

>  <RI>
0

>  <Rbt.Current_Directory>
/home/itssahil/PROJECTS/Mol_Feturizer/New_Systems/rnas/4PDQ

>  <Rbt.Executable>
rbdock ($Id: //depot/dev/client3/rdock/2013.1/src/exe/rbdock.cxx#4 $)

>  <Rbt.Library>
libRbt.so (2013.1, Build901 2013/11/27)

>  <Rbt.Parameter_File>
/export/apps/rDock/src/rDock_2013.1_src/data/scripts/dock_solv.prm

>  <Rbt.Receptor>
prm/pocket_docking_3.prm

>  <SCORE>
-13.3561

>  <SCORE.INTER>
-2.70891

>  <SCORE.INTER.CONST>
1

>  <SCORE.INTER.POLAR>
0

>  <SCORE.INTER.ROT>
13

>  <SCORE.INTER.SOLV>
17.6224

>  <SCORE.INTER.VDW>
-19.9467

>  <SCORE.INTER.norm>
-0.0552839

>  <SCORE.INTRA>
-10.6581

>  <SCORE.INTRA.DIHEDRAL>
-26.6177

>  <SCORE.INTRA.DIHEDRAL.0>
34.5115

>  <SCORE.INTRA.POLAR>
0

>  <SCORE.INTRA.POLAR.0>
0

>  <SCORE.INTRA.REPUL>
0

>  <SCORE.INTRA.REPUL.0>
0

>  <SCORE.INTRA.SOLV>
-1.65026

>  <SCORE.INTRA.SOLV.lig_0>
-122.812

>  <SCORE.INTRA.VDW>
3.47581

>  <SCORE.INTRA.VDW.0>
-7.46208

>  <SCORE.INTRA.norm>
-0.217513

>  <SCORE.RESTR>
0.0109933

>  <SCORE.RESTR.CAVITY>
0.0109933

>  <SCORE.RESTR.norm>
0.000224354

>  <SCORE.SYSTEM>
0

>  <SCORE.SYSTEM.CONST>
0

>  <SCORE.SYSTEM.DIHEDRAL>
0

>  <SCORE.SYSTEM.SOLV>
0

>  <SCORE.SYSTEM.norm>
0

>  <SCORE.heavy>
49

>  <SCORE.norm>
-0.272573

>  <RMSD>
9.535

$$$$
ligand
 OpenBabel11021811513D
libRbt.so/2013.1/901 2013/11/27
 49 52  0  0  0  0  0  0  0  0999 V2000
   25.7310    9.4261    6.3766 C   0  0  2  0  0  0  0  0  0  0  0  0
   26.4164    9.1980    5.1807 O   0  0  0  0  0  0  0  0  0  0  0  0
   25.3887   10.9566    6.5087 C   0  0  2  0  0  0  0  0  0  0  0  0
   24.5388   11.3816    5.3215 N   0  0  0  0  0  0  0  0  0  0  0  0
   24.3688   11.0428    0.1192 O   0  0  0  0  0  0  0  0  0  0  0  0
   26.6864   11.7928    6.6018 C   0  0  2  0  0  0  0  0  0  0  0  0
   25.6363   12.6177   -2.0980 N   0  0  0  0  0  0  0  0  0  0  0  0
   27.5370   11.3321    7.7959 C   0  0  2  0  0  0  0  0  0  0  0  0
   27.9011    9.7902    7.6985 C   0  0  2  0  0  0  0  0  0  0  0  0
   26.5934    9.0095    7.5545 O   0  0  0  0  0  0  0  0  0  0  0  0
   28.7149    9.3182    8.9382 C   0  0  0  0  0  0  0  0  0  0  0  0
   29.7625   10.2017    9.3067 N   0  0  0  0  0  0  0  0  0  0  0  0
   25.6657    8.5744    0.9557 C   0  0  2  0  0  0  0  0  0  0  0  0
   25.0869    8.7741   -0.4053 N   0  0  0  0  0  0  0  0  0  0  0  0
   24.4471    8.6411    1.9984 C   0  0  0  0  0  0  0  0  0  0  0  0
   24.9681    8.4143    3.4665 C   0  0  2  0  0  0  0  0  0  0  0  0
   23.8635    8.4932    4.4336 N   0  0  0  0  0  0  0  0  0  0  0  0
   26.0104    9.4889    3.8352 C   0  0  2  0  0  0  0  0  0  0  0  0
   27.2252    9.4529    2.8224 C   0  0  2  0  0  0  0  0  0  0  0  0
   28.1626   10.5050    3.2628 O   0  0  0  0  0  0  0  0  0  0  0  0
   26.6742    9.7527    1.3365 C   0  0  1  0  0  0  0  0  0  0  0  0
   27.7581    9.7245    0.4624 O   0  0  0  0  0  0  0  0  0  0  0  0
   29.3702   10.6909    2.8506 C   0  0  1  0  0  0  0  0  0  0  0  0
   30.0097    9.5016    2.0752 C   0  0  2  0  0  0  0  0  0  0  0  0
   30.6725    8.6919    2.9944 O   0  0  0  0  0  0  0  0  0  0  0  0
   30.9545   10.2653    1.2433 C   0  0  1  0  0  0  0  0  0  0  0  0
   30.2493   11.5807    0.7895 C   0  0  2  0  0  0  0  0  0  0  0  0
   29.5515   11.8546    1.9797 O   0  0  0  0  0  0  0  0  0  0  0  0
   29.4503   11.5600   -0.5144 C   0  0  0  0  0  0  0  0  0  0  0  0
   30.3392   11.1035   -1.5165 O   0  0  0  0  0  0  0  0  0  0  0  0
   33.2930   10.9712    1.4816 C   0  0  2  0  0  0  0  0  0  0  0  0
   32.1610   10.5183    2.0956 O   0  0  0  0  0  0  0  0  0  0  0  0
   33.2857   10.6913    0.0075 C   0  0  1  0  0  0  0  0  0  0  0  0
   38.5076   10.6020    1.5565 N   0  0  0  0  0  0  0  0  0  0  0  0
   22.8493    9.2009   -2.3706 O   0  0  0  0  0  0  0  0  0  0  0  0
   34.6405   11.1934   -0.6270 C   0  0  2  0  0  0  0  0  0  0  0  0
   35.9158   10.5592    0.0288 C   0  0  1  0  0  0  0  0  0  0  0  0
   35.9054   10.8499    1.4433 C   0  0  1  0  0  0  0  0  0  0  0  0
   34.6114   10.3768    2.0779 O   0  0  0  0  0  0  0  0  0  0  0  0
   37.1625   10.1862    2.1590 C   0  0  0  0  0  0  0  0  0  0  0  0
   33.1842    9.3042   -0.2199 N   0  0  0  0  0  0  0  0  0  0  0  0
   26.4116   12.8938    6.7379 O   0  0  0  0  0  0  0  0  0  0  0  0
   23.4093   11.4023   -2.3658 C   0  0  0  0  0  0  0  0  0  0  0  0
   35.8696    9.4216   -0.1173 O   0  0  0  0  0  0  0  0  0  0  0  0
   34.7137   12.3295   -0.4622 O   0  0  0  0  0  0  0  0  0  0  0  0
   24.4476   10.1017   -0.6833 C   0  0  0  0  0  0  0  0  0  0  0  0
   24.4525   12.2080   -2.7641 C   0  0  0  0  0  0  0  0  0  0  0  0
   23.8822   10.1684   -2.1957 C   0  0  1  0  0  0  0  0  0  0  0  0
   26.8323   11.5408    8.9948 F   0  0  0  0  0  0  0  0  0  0  0  0
  1  2  1  6  0  0  0
  1 10  1  0  0  0  0
  1  3  1  0  0  0  0
  3  4  1  6  0  0  0
  3  6  1  0  0  0  0
  5 46  2  0  0  0  0
  6 42  1  1  0  0  0
  6  8  1  0  0  0  0
  7 47  1  0  0  0  0
  8  9  1  0  0  0  0
  8 49  1  1  0  0  0
  9 10  1  0  0  0  0
  9 11  1  1  0  0  0
 11 12  1  0  0  0  0
 13 14  1  6  0  0  0
 13 15  1  0  0  0  0
 13 21  1  0  0  0  0
 14 46  1  0  0  0  0
 15 16  1  0  0  0  0
 16 17  1  1  0  0  0
 16 18  1  0  0  0  0
 18  2  1  1  0  0  0
 18 19  1  0  0  0  0
 19 20  1  1  0  0  0
 19 21  1  0  0  0  0
 21 22  1  6  0  0  0
 23 20  1  6  0  0  0
 23 24  1  0  0  0  0
 23 28  1  0  0  0  0
 24 25  1  1  0  0  0
 24 26  1  0  0  0  0
 26 27  1  0  0  0  0
 26 32  1  1  0  0  0
 27 28  1  0  0  0  0
 27 29  1  6  0  0  0
 29 30  1  0  0  0  0
 31 32  1  1  0  0  0
 31 33  1  0  0  0  0
 31 39  1  0  0  0  0
 33 36  1  0  0  0  0
 33 41  1  1  0  0  0
 34 40  1  0  0  0  0
 35 48  1  0  0  0  0
 36 37  1  0  0  0  0
 36 45  1  1  0  0  0
 37 38  1  0  0  0  0
 37 44  1  1  0  0  0
 38 39  1  0  0  0  0
 38 40  1  1  0  0  0
 43 47  1  0  0  0  0
 46 48  1  0  0  0  0
 48 43  1  1  0  0  0
M  END
>  <CHROM.1>
-57.49399971,-75.56787227,-45.27668446,64.09482789,168.73774406,-15.54954461
166.99603593,-55.23949862,-19.92443128,56.03583204,-65.45788278,-154.20237440
-117.39090021,28.81292197,10.37439799,2.40151554,-2.86402402,-0.03675281
-1.53844938

>  <Name>
ligand

>  <RI>
0

>  <Rbt.Current_Directory>
/home/itssahil/PROJECTS/Mol_Feturizer/New_Systems/rnas/4PDQ

>  <Rbt.Executable>
rbdock ($Id: //depot/dev/client3/rdock/2013.1/src/exe/rbdock.cxx#4 $)

>  <Rbt.Library>
libRbt.so (2013.1, Build901 2013/11/27)

>  <Rbt.Parameter_File>
/export/apps/rDock/src/rDock_2013.1_src/data/scripts/dock_solv.prm

>  <Rbt.Receptor>
prm/pocket_docking_2.prm

>  <SCORE>
5.33989

>  <SCORE.INTER>
0.0847824

>  <SCORE.INTER.CONST>
1

>  <SCORE.INTER.POLAR>
0

>  <SCORE.INTER.ROT>
13

>  <SCORE.INTER.SOLV>
23.0123

>  <SCORE.INTER.VDW>
-19.8809

>  <SCORE.INTER.norm>
0.00173025

>  <SCORE.INTRA>
2.72915

>  <SCORE.INTRA.DIHEDRAL>
-16.6145

>  <SCORE.INTRA.DIHEDRAL.0>
34.5115

>  <SCORE.INTRA.POLAR>
0

>  <SCORE.INTRA.POLAR.0>
0

>  <SCORE.INTRA.REPUL>
0

>  <SCORE.INTRA.REPUL.0>
0

>  <SCORE.INTRA.SOLV>
7.07692

>  <SCORE.INTRA.SOLV.lig_0>
-122.812

>  <SCORE.INTRA.VDW>
7.49794

>  <SCORE.INTRA.VDW.0>
-7.46208

>  <SCORE.INTRA.norm>
0.0556969

>  <SCORE.RESTR>
2.52596

>  <SCORE.RESTR.CAVITY>
2.52596

>  <SCORE.RESTR.norm>
0.0515502

>  <SCORE.SYSTEM>
0

>  <SCORE.SYSTEM.CONST>
0

>  <SCORE.SYSTEM.DIHEDRAL>
0

>  <SCORE.SYSTEM.SOLV>
0

>  <SCORE.SYSTEM.norm>
0

>  <SCORE.heavy>
49

>  <SCORE.norm>
0.108977

>  <RMSD>
9.586

$$$$
ligand
 OpenBabel11021811513D
libRbt.so/2013.1/901 2013/11/27
 49 52  0  0  0  0  0  0  0  0999 V2000
   23.8000   19.4794    7.6759 C   0  0  2  0  0  0  0  0  0  0  0  0
   24.9607   18.9290    8.2252 O   0  0  0  0  0  0  0  0  0  0  0  0
   23.5520   20.9100    8.2832 C   0  0  2  0  0  0  0  0  0  0  0  0
   24.7518   21.7944    7.9818 N   0  0  0  0  0  0  0  0  0  0  0  0
   28.2057   14.2234    7.4321 O   0  0  0  0  0  0  0  0  0  0  0  0
   23.2914   20.8117    9.8045 C   0  0  2  0  0  0  0  0  0  0  0  0
   31.6140   12.8030    7.9506 N   0  0  0  0  0  0  0  0  0  0  0  0
   22.0879   19.8981   10.0847 C   0  0  2  0  0  0  0  0  0  0  0  0
   22.3010   18.4441    9.4844 C   0  0  2  0  0  0  0  0  0  0  0  0
   22.6077   18.5948    7.9933 O   0  0  0  0  0  0  0  0  0  0  0  0
   21.0560   17.5417    9.7235 C   0  0  0  0  0  0  0  0  0  0  0  0
   19.9023   17.9550    9.0078 N   0  0  0  0  0  0  0  0  0  0  0  0
   26.3287   15.6569    5.7302 C   0  0  2  0  0  0  0  0  0  0  0  0
   27.1797   14.5318    5.2435 N   0  0  0  0  0  0  0  0  0  0  0  0
   27.3167   16.8662    6.1017 C   0  0  0  0  0  0  0  0  0  0  0  0
   26.4951   18.1114    6.6043 C   0  0  2  0  0  0  0  0  0  0  0  0
   27.3907   19.2196    6.9671 N   0  0  0  0  0  0  0  0  0  0  0  0
   25.6634   17.7361    7.8471 C   0  0  2  0  0  0  0  0  0  0  0  0
   24.6801   16.5419    7.5156 C   0  0  2  0  0  0  0  0  0  0  0  0
   23.9306   16.2660    8.7573 O   0  0  0  0  0  0  0  0  0  0  0  0
   25.5497   15.2598    7.0667 C   0  0  1  0  0  0  0  0  0  0  0  0
   24.6678   14.2187    6.7874 O   0  0  0  0  0  0  0  0  0  0  0  0
   24.2723   15.4654    9.7086 C   0  0  1  0  0  0  0  0  0  0  0  0
   23.8112   15.8787   11.1373 C   0  0  2  0  0  0  0  0  0  0  0  0
   24.8183   16.6514   11.7106 O   0  0  0  0  0  0  0  0  0  0  0  0
   23.7440   14.5380   11.7422 C   0  0  1  0  0  0  0  0  0  0  0  0
   23.1701   13.5527   10.6777 C   0  0  2  0  0  0  0  0  0  0  0  0
   23.8139   14.0838    9.5455 O   0  0  0  0  0  0  0  0  0  0  0  0
   21.6539   13.3640   10.6102 C   0  0  0  0  0  0  0  0  0  0  0  0
   21.1464   14.4824    9.9071 O   0  0  0  0  0  0  0  0  0  0  0  0
   25.3781   12.9218   12.6030 C   0  0  2  0  0  0  0  0  0  0  0  0
   25.1409   14.1911   12.1602 O   0  0  0  0  0  0  0  0  0  0  0  0
   25.9205   12.9043   14.0018 C   0  0  1  0  0  0  0  0  0  0  0  0
   27.7201    8.4608   11.2660 N   0  0  0  0  0  0  0  0  0  0  0  0
   28.6925   12.6486    4.1662 O   0  0  0  0  0  0  0  0  0  0  0  0
   26.2187   11.4147   14.4287 C   0  0  2  0  0  0  0  0  0  0  0  0
   27.2067   10.6697   13.4656 C   0  0  1  0  0  0  0  0  0  0  0  0
   26.6592   10.6912   12.1295 C   0  0  1  0  0  0  0  0  0  0  0  0
   26.3629   12.1140   11.6947 O   0  0  0  0  0  0  0  0  0  0  0  0
   27.6525    9.9824   11.1076 C   0  0  0  0  0  0  0  0  0  0  0  0
   27.1297   13.6260   14.0598 N   0  0  0  0  0  0  0  0  0  0  0  0
   23.0742   21.8565   10.2139 O   0  0  0  0  0  0  0  0  0  0  0  0
   30.2266   12.9473    5.8146 C   0  0  0  0  0  0  0  0  0  0  0  0
   28.2066   11.2335   13.4668 O   0  0  0  0  0  0  0  0  0  0  0  0
   25.2284   10.8300   14.4041 O   0  0  0  0  0  0  0  0  0  0  0  0
   28.1010   13.8961    6.2415 C   0  0  0  0  0  0  0  0  0  0  0  0
   30.5004   12.5576    7.1065 C   0  0  0  0  0  0  0  0  0  0  0  0
   28.9422   12.6911    5.5695 C   0  0  1  0  0  0  0  0  0  0  0  0
   20.9274   20.4442    9.5082 F   0  0  0  0  0  0  0  0  0  0  0  0
  1  2  1  1  0  0  0
  1 10  1  0  0  0  0
  1  3  1  0  0  0  0
  3  4  1  1  0  0  0
  3  6  1  0  0  0  0
  5 46  2  0  0  0  0
  6 42  1  6  0  0  0
  6  8  1  0  0  0  0
  7 47  1  0  0  0  0
  8  9  1  0  0  0  0
  8 49  1  6  0  0  0
  9 10  1  0  0  0  0
  9 11  1  6  0  0  0
 11 12  1  0  0  0  0
 13 14  1  1  0  0  0
 13 15  1  0  0  0  0
 13 21  1  0  0  0  0
 14 46  1  0  0  0  0
 15 16  1  0  0  0  0
 16 17  1  1  0  0  0
 16 18  1  0  0  0  0
 18  2  1  6  0  0  0
 18 19  1  0  0  0  0
 19 20  1  1  0  0  0
 19 21  1  0  0  0  0
 21 22  1  6  0  0  0
 23 20  1  6  0  0  0
 23 24  1  0  0  0  0
 23 28  1  0  0  0  0
 24 25  1  1  0  0  0
 24 26  1  0  0  0  0
 26 27  1  0  0  0  0
 26 32  1  6  0  0  0
 27 28  1  0  0  0  0
 27 29  1  6  0  0  0
 29 30  1  0  0  0  0
 31 32  1  6  0  0  0
 31 33  1  0  0  0  0
 31 39  1  0  0  0  0
 33 36  1  0  0  0  0
 33 41  1  6  0  0  0
 34 40  1  0  0  0  0
 35 48  1  0  0  0  0
 36 37  1  0  0  0  0
 36 45  1  6  0  0  0
 37 38  1  0  0  0  0
 37 44  1  6  0  0  0
 38 39  1  0  0  0  0
 38 40  1  6  0  0  0
 43 47  1  0  0  0  0
 46 48  1  0  0  0  0
 48 43  1  6  0  0  0
M  END
>  <CHROM.1>
-171.01530500,79.37719232,66.98151074,66.11267683,-88.55060227,148.17881531
-172.08165793,79.06145814,-121.15549694,71.70990997,-167.57893881,-160.87157203
-174.49956660,25.32845284,15.32259036,9.41514522,-2.28688077,-0.74343093
2.34066217

>  <Name>
ligand

>  <RI>
0

>  <Rbt.Current_Directory>
/home/itssahil/PROJECTS/Mol_Feturizer/New_Systems/rnas/4PDQ

>  <Rbt.Executable>
rbdock ($Id: //depot/dev/client3/rdock/2013.1/src/exe/rbdock.cxx#4 $)

>  <Rbt.Library>
libRbt.so (2013.1, Build901 2013/11/27)

>  <Rbt.Parameter_File>
/export/apps/rDock/src/rDock_2013.1_src/data/scripts/dock_solv.prm

>  <Rbt.Receptor>
prm/blind_docking_40.prm

>  <SCORE>
-2.34942

>  <SCORE.INTER>
-3.11274

>  <SCORE.INTER.CONST>
1

>  <SCORE.INTER.POLAR>
0

>  <SCORE.INTER.ROT>
13

>  <SCORE.INTER.SOLV>
39.8663

>  <SCORE.INTER.VDW>
-27.6306

>  <SCORE.INTER.norm>
-0.0635252

>  <SCORE.INTRA>
-3.07188

>  <SCORE.INTRA.DIHEDRAL>
-11.6212

>  <SCORE.INTRA.DIHEDRAL.0>
34.5115

>  <SCORE.INTRA.POLAR>
0

>  <SCORE.INTRA.POLAR.0>
0

>  <SCORE.INTRA.REPUL>
0

>  <SCORE.INTRA.REPUL.0>
0

>  <SCORE.INTRA.SOLV>
0.572562

>  <SCORE.INTRA.SOLV.lig_0>
-122.812

>  <SCORE.INTRA.VDW>
2.45242

>  <SCORE.INTRA.VDW.0>
-7.46208

>  <SCORE.INTRA.norm>
-0.0626914

>  <SCORE.RESTR>
3.83519

>  <SCORE.RESTR.CAVITY>
3.83519

>  <SCORE.RESTR.norm>
0.0782693

>  <SCORE.SYSTEM>
0

>  <SCORE.SYSTEM.CONST>
0

>  <SCORE.SYSTEM.DIHEDRAL>
0

>  <SCORE.SYSTEM.SOLV>
0

>  <SCORE.SYSTEM.norm>
0

>  <SCORE.heavy>
49

>  <SCORE.norm>
-0.0479474

>  <RMSD>
9.600

$$$$
ligand
 OpenBabel11021811513D
libRbt.so/2013.1/901 2013/11/27
 49 52  0  0  0  0  0  0  0  0999 V2000
   24.0751   14.4513    6.5878 C   0  0  2  0  0  0  0  0  0  0  0  0
   24.4110   13.8075    7.7814 O   0  0  0  0  0  0  0  0  0  0  0  0
   24.9788   13.9084    5.4192 C   0  0  2  0  0  0  0  0  0  0  0  0
   24.7745   12.4073    5.2873 N   0  0  0  0  0  0  0  0  0  0  0  0
   26.5319   15.3126   13.0177 O   0  0  0  0  0  0  0  0  0  0  0  0
   26.4632   14.2551    5.6805 C   0  0  2  0  0  0  0  0  0  0  0  0
   30.1224   15.9838   14.9888 N   0  0  0  0  0  0  0  0  0  0  0  0
   26.6411   15.7742    5.8299 C   0  0  2  0  0  0  0  0  0  0  0  0
   25.7421   16.3594    6.9999 C   0  0  2  0  0  0  0  0  0  0  0  0
   24.2943   15.9470    6.7275 O   0  0  0  0  0  0  0  0  0  0  0  0
   25.8853   17.9051    7.1088 C   0  0  0  0  0  0  0  0  0  0  0  0
   25.3432   18.6105    6.0031 N   0  0  0  0  0  0  0  0  0  0  0  0
   26.0231   16.7442   10.5345 C   0  0  2  0  0  0  0  0  0  0  0  0
   26.3350   17.4278   11.8239 N   0  0  0  0  0  0  0  0  0  0  0  0
   24.4639   16.3643   10.5698 C   0  0  0  0  0  0  0  0  0  0  0  0
   24.0412   15.6564    9.2287 C   0  0  2  0  0  0  0  0  0  0  0  0
   22.6188   15.2850    9.2569 N   0  0  0  0  0  0  0  0  0  0  0  0
   24.8708   14.3743    9.0171 C   0  0  2  0  0  0  0  0  0  0  0  0
   26.4157   14.7136    8.9817 C   0  0  2  0  0  0  0  0  0  0  0  0
   27.1163   13.4317    8.7691 O   0  0  0  0  0  0  0  0  0  0  0  0
   26.8361   15.3772   10.3904 C   0  0  1  0  0  0  0  0  0  0  0  0
   28.1987   15.6608   10.3422 O   0  0  0  0  0  0  0  0  0  0  0  0
   26.9450   12.3352    9.4258 C   0  0  1  0  0  0  0  0  0  0  0  0
   26.3890   12.4938   10.8716 C   0  0  2  0  0  0  0  0  0  0  0  0
   27.4709   12.5993   11.7424 O   0  0  0  0  0  0  0  0  0  0  0  0
   25.7190   11.1883   10.9930 C   0  0  1  0  0  0  0  0  0  0  0  0
   25.0525   10.8547    9.6227 C   0  0  2  0  0  0  0  0  0  0  0  0
   26.0585   11.3633    8.7815 O   0  0  0  0  0  0  0  0  0  0  0  0
   23.6182   11.3279    9.3821 C   0  0  0  0  0  0  0  0  0  0  0  0
   22.7751   10.3218    9.9108 O   0  0  0  0  0  0  0  0  0  0  0  0
   26.5383    8.8795   11.1391 C   0  0  2  0  0  0  0  0  0  0  0  0
   26.7796   10.2017   11.3776 O   0  0  0  0  0  0  0  0  0  0  0  0
   25.7815    8.2326   12.2616 C   0  0  1  0  0  0  0  0  0  0  0  0
   28.8881    4.3981    9.8472 N   0  0  0  0  0  0  0  0  0  0  0  0
   25.6982   17.7948   14.9949 O   0  0  0  0  0  0  0  0  0  0  0  0
   25.5830    6.6998   11.9439 C   0  0  2  0  0  0  0  0  0  0  0  0
   26.9259    5.9297   11.6943 C   0  0  1  0  0  0  0  0  0  0  0  0
   27.6306    6.5638   10.6049 C   0  0  1  0  0  0  0  0  0  0  0  0
   27.8342    8.0405   10.8859 O   0  0  0  0  0  0  0  0  0  0  0  0
   29.0240    5.8400   10.3447 C   0  0  0  0  0  0  0  0  0  0  0  0
   26.5132    8.3391   13.4615 N   0  0  0  0  0  0  0  0  0  0  0  0
   27.0925   13.8871    4.8003 O   0  0  0  0  0  0  0  0  0  0  0  0
   27.6682   16.6699   15.1104 C   0  0  0  0  0  0  0  0  0  0  0  0
   27.5665    6.0029   12.6440 O   0  0  0  0  0  0  0  0  0  0  0  0
   24.9662    6.6114   10.9770 O   0  0  0  0  0  0  0  0  0  0  0  0
   26.5690   16.5512   13.0179 C   0  0  0  0  0  0  0  0  0  0  0  0
   28.9414   16.6588   14.5859 C   0  0  0  0  0  0  0  0  0  0  0  0
   26.9063   17.4340   14.3288 C   0  0  1  0  0  0  0  0  0  0  0  0
   26.2778   16.4188    4.6341 F   0  0  0  0  0  0  0  0  0  0  0  0
  1  2  1  1  0  0  0
  1 10  1  0  0  0  0
  1  3  1  0  0  0  0
  3  4  1  1  0  0  0
  3  6  1  0  0  0  0
  5 46  2  0  0  0  0
  6 42  1  6  0  0  0
  6  8  1  0  0  0  0
  7 47  1  0  0  0  0
  8  9  1  0  0  0  0
  8 49  1  6  0  0  0
  9 10  1  0  0  0  0
  9 11  1  6  0  0  0
 11 12  1  0  0  0  0
 13 14  1  1  0  0  0
 13 15  1  0  0  0  0
 13 21  1  0  0  0  0
 14 46  1  0  0  0  0
 15 16  1  0  0  0  0
 16 17  1  1  0  0  0
 16 18  1  0  0  0  0
 18  2  1  6  0  0  0
 18 19  1  0  0  0  0
 19 20  1  1  0  0  0
 19 21  1  0  0  0  0
 21 22  1  6  0  0  0
 23 20  1  6  0  0  0
 23 24  1  0  0  0  0
 23 28  1  0  0  0  0
 24 25  1  1  0  0  0
 24 26  1  0  0  0  0
 26 27  1  0  0  0  0
 26 32  1  6  0  0  0
 27 28  1  0  0  0  0
 27 29  1  1  0  0  0
 29 30  1  0  0  0  0
 31 32  1  1  0  0  0
 31 33  1  0  0  0  0
 31 39  1  0  0  0  0
 33 36  1  0  0  0  0
 33 41  1  1  0  0  0
 34 40  1  0  0  0  0
 35 48  1  0  0  0  0
 36 37  1  0  0  0  0
 36 45  1  6  0  0  0
 37 38  1  0  0  0  0
 37 44  1  1  0  0  0
 38 39  1  0  0  0  0
 38 40  1  1  0  0  0
 43 47  1  0  0  0  0
 46 48  1  0  0  0  0
 48 43  1  1  0  0  0
M  END
>  <CHROM.1>
121.23633923,40.41124263,67.73644637,80.77466114,-50.04084865,-24.88433112
-159.20822890,-86.33949923,-86.00396170,65.64527853,-177.85018004,-163.74055142
-92.89524301,26.19770431,12.92165588,9.96757896,1.98116452,-1.30318792,0.15062961

>  <Name>
ligand

>  <RI>
0

>  <Rbt.Current_Directory>
/home/itssahil/PROJECTS/Mol_Feturizer/New_Systems/rnas/4PDQ

>  <Rbt.Executable>
rbdock ($Id: //depot/dev/client3/rdock/2013.1/src/exe/rbdock.cxx#4 $)

>  <Rbt.Library>
libRbt.so (2013.1, Build901 2013/11/27)

>  <Rbt.Parameter_File>
/export/apps/rDock/src/rDock_2013.1_src/data/scripts/dock_solv.prm

>  <Rbt.Receptor>
prm/blind_docking_100.prm

>  <SCORE>
7.9411

>  <SCORE.INTER>
0.322344

>  <SCORE.INTER.CONST>
1

>  <SCORE.INTER.POLAR>
0

>  <SCORE.INTER.ROT>
13

>  <SCORE.INTER.SOLV>
30.9364

>  <SCORE.INTER.VDW>
-22.3639

>  <SCORE.INTER.norm>
0.00657845

>  <SCORE.INTRA>
4.03488

>  <SCORE.INTRA.DIHEDRAL>
-10.5424

>  <SCORE.INTRA.DIHEDRAL.0>
34.5115

>  <SCORE.INTRA.POLAR>
0

>  <SCORE.INTRA.POLAR.0>
0

>  <SCORE.INTRA.REPUL>
0

>  <SCORE.INTRA.REPUL.0>
0

>  <SCORE.INTRA.SOLV>
1.92104

>  <SCORE.INTRA.SOLV.lig_0>
-122.812

>  <SCORE.INTRA.VDW>
8.34556

>  <SCORE.INTRA.VDW.0>
-7.46208

>  <SCORE.INTRA.norm>
0.0823445

>  <SCORE.RESTR>
3.58387

>  <SCORE.RESTR.CAVITY>
3.58387

>  <SCORE.RESTR.norm>
0.0731403

>  <SCORE.SYSTEM>
0

>  <SCORE.SYSTEM.CONST>
0

>  <SCORE.SYSTEM.DIHEDRAL>
0

>  <SCORE.SYSTEM.SOLV>
0

>  <SCORE.SYSTEM.norm>
0

>  <SCORE.heavy>
49

>  <SCORE.norm>
0.162063

>  <RMSD>
9.697

$$$$
ligand
 OpenBabel11021811513D
libRbt.so/2013.1/901 2013/11/27
 49 52  0  0  0  0  0  0  0  0999 V2000
   27.3436    6.8599    3.8514 C   0  0  2  0  0  0  0  0  0  0  0  0
   27.2147    7.6517    4.9953 O   0  0  0  0  0  0  0  0  0  0  0  0
   26.9313    5.3775    4.1827 C   0  0  2  0  0  0  0  0  0  0  0  0
   25.4946    5.3592    4.6808 N   0  0  0  0  0  0  0  0  0  0  0  0
   25.0051   14.1239    5.3199 O   0  0  0  0  0  0  0  0  0  0  0  0
   27.8980    4.7698    5.2257 C   0  0  2  0  0  0  0  0  0  0  0  0
   26.0269   18.6866    6.5735 N   0  0  0  0  0  0  0  0  0  0  0  0
   29.3443    4.8176    4.7087 C   0  0  2  0  0  0  0  0  0  0  0  0
   29.7961    6.2991    4.3615 C   0  0  2  0  0  0  0  0  0  0  0  0
   28.7835    6.8762    3.3706 O   0  0  0  0  0  0  0  0  0  0  0  0
   31.2417    6.3332    3.7864 C   0  0  0  0  0  0  0  0  0  0  0  0
   31.7139    7.6404    3.4993 N   0  0  0  0  0  0  0  0  0  0  0  0
   26.6734   11.8360    5.9959 C   0  0  2  0  0  0  0  0  0  0  0  0
   27.0167   13.2387    6.3723 N   0  0  0  0  0  0  0  0  0  0  0  0
   27.5193   10.8708    6.9598 C   0  0  0  0  0  0  0  0  0  0  0  0
   27.1972    9.3622    6.6457 C   0  0  2  0  0  0  0  0  0  0  0  0
   27.9816    8.4671    7.5090 N   0  0  0  0  0  0  0  0  0  0  0  0
   27.5382    9.0380    5.1775 C   0  0  2  0  0  0  0  0  0  0  0  0
   26.7228    9.9765    4.1991 C   0  0  2  0  0  0  0  0  0  0  0  0
   27.1115    9.5845    2.8299 O   0  0  0  0  0  0  0  0  0  0  0  0
   27.1198   11.5111    4.4973 C   0  0  1  0  0  0  0  0  0  0  0  0
   26.3987   12.3194    3.6220 O   0  0  0  0  0  0  0  0  0  0  0  0
   26.6215   10.0341    1.7251 C   0  0  1  0  0  0  0  0  0  0  0  0
   27.0352    9.2606    0.4386 C   0  0  2  0  0  0  0  0  0  0  0  0
   28.1849    9.8566   -0.0740 O   0  0  0  0  0  0  0  0  0  0  0  0
   25.8534    9.5604   -0.3869 C   0  0  1  0  0  0  0  0  0  0  0  0
   24.5935    9.5097    0.5315 C   0  0  2  0  0  0  0  0  0  0  0  0
   25.1586   10.0940    1.6794 O   0  0  0  0  0  0  0  0  0  0  0  0
   23.8727    8.1710    0.6967 C   0  0  0  0  0  0  0  0  0  0  0  0
   24.8097    7.2860    1.2810 O   0  0  0  0  0  0  0  0  0  0  0  0
   25.4347   11.2251   -2.1410 C   0  0  2  0  0  0  0  0  0  0  0  0
   26.0842   10.9171   -0.9805 O   0  0  0  0  0  0  0  0  0  0  0  0
   25.7282   12.6238   -2.5977 C   0  0  1  0  0  0  0  0  0  0  0  0
   20.7108   11.2810   -4.3705 N   0  0  0  0  0  0  0  0  0  0  0  0
   27.8407   15.6559    7.0526 O   0  0  0  0  0  0  0  0  0  0  0  0
   24.9080   12.9283   -3.9110 C   0  0  2  0  0  0  0  0  0  0  0  0
   23.3606   12.7363   -3.7454 C   0  0  1  0  0  0  0  0  0  0  0  0
   23.1030   11.3819   -3.3155 C   0  0  1  0  0  0  0  0  0  0  0  0
   23.8812   11.0634   -2.0529 O   0  0  0  0  0  0  0  0  0  0  0  0
   21.5438   11.1541   -3.0918 C   0  0  0  0  0  0  0  0  0  0  0  0
   25.3307   13.5475   -1.6102 N   0  0  0  0  0  0  0  0  0  0  0  0
   27.6029    3.6825    5.4186 O   0  0  0  0  0  0  0  0  0  0  0  0
   26.6197   16.5291    5.3477 C   0  0  0  0  0  0  0  0  0  0  0  0
   22.9912   13.4602   -2.9348 O   0  0  0  0  0  0  0  0  0  0  0  0
   25.2480   12.1899   -4.7248 O   0  0  0  0  0  0  0  0  0  0  0  0
   26.0572   14.3100    5.9477 C   0  0  0  0  0  0  0  0  0  0  0  0
   26.8049   17.8331    5.7494 C   0  0  0  0  0  0  0  0  0  0  0  0
   26.5586   15.7659    6.4382 C   0  0  1  0  0  0  0  0  0  0  0  0
   29.4624    4.0393    3.5435 F   0  0  0  0  0  0  0  0  0  0  0  0
  1  2  1  1  0  0  0
  1 10  1  0  0  0  0
  1  3  1  0  0  0  0
  3  4  1  1  0  0  0
  3  6  1  0  0  0  0
  5 46  2  0  0  0  0
  6 42  1  6  0  0  0
  6  8  1  0  0  0  0
  7 47  1  0  0  0  0
  8  9  1  0  0  0  0
  8 49  1  6  0  0  0
  9 10  1  0  0  0  0
  9 11  1  6  0  0  0
 11 12  1  0  0  0  0
 13 14  1  1  0  0  0
 13 15  1  0  0  0  0
 13 21  1  0  0  0  0
 14 46  1  0  0  0  0
 15 16  1  0  0  0  0
 16 17  1  1  0  0  0
 16 18  1  0  0  0  0
 18  2  1  6  0  0  0
 18 19  1  0  0  0  0
 19 20  1  6  0  0  0
 19 21  1  0  0  0  0
 21 22  1  6  0  0  0
 23 20  1  1  0  0  0
 23 24  1  0  0  0  0
 23 28  1  0  0  0  0
 24 25  1  6  0  0  0
 24 26  1  0  0  0  0
 26 27  1  0  0  0  0
 26 32  1  1  0  0  0
 27 28  1  0  0  0  0
 27 29  1  1  0  0  0
 29 30  1  0  0  0  0
 31 32  1  1  0  0  0
 31 33  1  0  0  0  0
 31 39  1  0  0  0  0
 33 36  1  0  0  0  0
 33 41  1  1  0  0  0
 34 40  1  0  0  0  0
 35 48  1  0  0  0  0
 36 37  1  0  0  0  0
 36 45  1  6  0  0  0
 37 38  1  0  0  0  0
 37 44  1  1  0  0  0
 38 39  1  0  0  0  0
 38 40  1  1  0  0  0
 43 47  1  0  0  0  0
 46 48  1  0  0  0  0
 48 43  1  6  0  0  0
M  END
>  <CHROM.1>
176.68803539,-179.52126569,-178.02658110,-160.64809763,175.16509727,-169.32675701
155.61325302,61.49745254,178.38968735,64.34586291,-59.33031991,-71.37379307
-176.18723318,26.40843615,10.30946874,2.39530286,0.06862749,1.12360575,-2.60951204

>  <Name>
ligand

>  <RI>
0

>  <Rbt.Current_Directory>
/home/itssahil/PROJECTS/Mol_Feturizer/New_Systems/rnas/4PDQ

>  <Rbt.Executable>
rbdock ($Id: //depot/dev/client3/rdock/2013.1/src/exe/rbdock.cxx#4 $)

>  <Rbt.Library>
libRbt.so (2013.1, Build901 2013/11/27)

>  <Rbt.Parameter_File>
/export/apps/rDock/src/rDock_2013.1_src/data/scripts/dock_solv.prm

>  <Rbt.Receptor>
prm/pocket_docking_8.prm

>  <SCORE>
-18.4339

>  <SCORE.INTER>
-5.05655

>  <SCORE.INTER.CONST>
1

>  <SCORE.INTER.POLAR>
0

>  <SCORE.INTER.ROT>
13

>  <SCORE.INTER.SOLV>
17.5191

>  <SCORE.INTER.VDW>
-21.4774

>  <SCORE.INTER.norm>
-0.103195

>  <SCORE.INTRA>
-13.3774

>  <SCORE.INTRA.DIHEDRAL>
-27.8897

>  <SCORE.INTRA.DIHEDRAL.0>
34.5115

>  <SCORE.INTRA.POLAR>
0

>  <SCORE.INTRA.POLAR.0>
0

>  <SCORE.INTRA.REPUL>
0

>  <SCORE.INTRA.REPUL.0>
0

>  <SCORE.INTRA.SOLV>
-2.707

>  <SCORE.INTRA.SOLV.lig_0>
-122.812

>  <SCORE.INTRA.VDW>
1.92098

>  <SCORE.INTRA.VDW.0>
-7.46208

>  <SCORE.INTRA.norm>
-0.273008

>  <SCORE.RESTR>
0

>  <SCORE.RESTR.CAVITY>
0

>  <SCORE.RESTR.norm>
0

>  <SCORE.SYSTEM>
0

>  <SCORE.SYSTEM.CONST>
0

>  <SCORE.SYSTEM.DIHEDRAL>
0

>  <SCORE.SYSTEM.SOLV>
0

>  <SCORE.SYSTEM.norm>
0

>  <SCORE.heavy>
49

>  <SCORE.norm>
-0.376203

>  <RMSD>
9.698

$$$$
ligand
 OpenBabel11021811513D
libRbt.so/2013.1/901 2013/11/27
 49 52  0  0  0  0  0  0  0  0999 V2000
   25.3352   14.0733    7.4320 C   0  0  2  0  0  0  0  0  0  0  0  0
   26.3121   13.4665    8.2254 O   0  0  0  0  0  0  0  0  0  0  0  0
   25.3250   13.4117    6.0039 C   0  0  2  0  0  0  0  0  0  0  0  0
   25.0437   11.9241    6.1457 N   0  0  0  0  0  0  0  0  0  0  0  0
   25.9239    9.4220   13.6968 O   0  0  0  0  0  0  0  0  0  0  0  0
   26.6694   13.6656    5.2830 C   0  0  2  0  0  0  0  0  0  0  0  0
   26.0230    4.2525   12.0146 N   0  0  0  0  0  0  0  0  0  0  0  0
   26.9409   15.1740    5.1695 C   0  0  2  0  0  0  0  0  0  0  0  0
   26.9569   15.8774    6.5924 C   0  0  2  0  0  0  0  0  0  0  0  0
   25.6329   15.5549    7.2877 O   0  0  0  0  0  0  0  0  0  0  0  0
   27.1768   17.4127    6.4658 C   0  0  0  0  0  0  0  0  0  0  0  0
   26.1460   18.0831    5.7573 N   0  0  0  0  0  0  0  0  0  0  0  0
   26.5804   10.0976   10.9423 C   0  0  2  0  0  0  0  0  0  0  0  0
   26.4905    8.6941   11.4414 N   0  0  0  0  0  0  0  0  0  0  0  0
   25.2133   10.4061   10.1598 C   0  0  0  0  0  0  0  0  0  0  0  0
   25.2130   11.8839    9.6174 C   0  0  2  0  0  0  0  0  0  0  0  0
   23.9736   12.1725    8.8807 N   0  0  0  0  0  0  0  0  0  0  0  0
   26.4039   12.1028    8.6631 C   0  0  2  0  0  0  0  0  0  0  0  0
   27.7695   11.8025    9.4034 C   0  0  2  0  0  0  0  0  0  0  0  0
   28.8386   12.0465    8.4150 O   0  0  0  0  0  0  0  0  0  0  0  0
   27.7710   10.2651    9.8911 C   0  0  1  0  0  0  0  0  0  0  0  0
   28.9825   10.0188   10.5324 O   0  0  0  0  0  0  0  0  0  0  0  0
   29.0086   11.4401    7.2898 C   0  0  1  0  0  0  0  0  0  0  0  0
   30.1792   11.9673    6.4087 C   0  0  2  0  0  0  0  0  0  0  0  0
   29.6744   12.9509    5.5616 O   0  0  0  0  0  0  0  0  0  0  0  0
   30.4812   10.7245    5.6791 C   0  0  1  0  0  0  0  0  0  0  0  0
   30.3471    9.5314    6.6751 C   0  0  2  0  0  0  0  0  0  0  0  0
   29.2322    9.9964    7.3957 O   0  0  0  0  0  0  0  0  0  0  0  0
   31.5836    9.1118    7.4713 C   0  0  0  0  0  0  0  0  0  0  0  0
   32.5030    8.5909    6.5300 O   0  0  0  0  0  0  0  0  0  0  0  0
   29.3624    9.4535    3.9025 C   0  0  2  0  0  0  0  0  0  0  0  0
   29.5012   10.6485    4.5477 O   0  0  0  0  0  0  0  0  0  0  0  0
   30.5560    9.1287    3.0535 C   0  0  1  0  0  0  0  0  0  0  0  0
   26.5379    9.2054    0.3201 N   0  0  0  0  0  0  0  0  0  0  0  0
   26.0279    6.7892   14.6896 O   0  0  0  0  0  0  0  0  0  0  0  0
   30.3066    7.7648    2.3001 C   0  0  2  0  0  0  0  0  0  0  0  0
   29.0097    7.7606    1.4187 C   0  0  1  0  0  0  0  0  0  0  0  0
   27.8751    8.0655    2.2586 C   0  0  1  0  0  0  0  0  0  0  0  0
   28.0904    9.3739    2.9954 O   0  0  0  0  0  0  0  0  0  0  0  0
   26.5389    8.1153    1.3955 C   0  0  0  0  0  0  0  0  0  0  0  0
   30.7474   10.1344    2.0848 N   0  0  0  0  0  0  0  0  0  0  0  0
   26.6222   13.2118    4.2351 O   0  0  0  0  0  0  0  0  0  0  0  0
   24.9633    6.4668   12.7091 C   0  0  0  0  0  0  0  0  0  0  0  0
   29.1122    8.5793    0.6208 O   0  0  0  0  0  0  0  0  0  0  0  0
   30.1731    6.9388    3.0895 O   0  0  0  0  0  0  0  0  0  0  0  0
   26.1459    8.5088   12.8890 C   0  0  0  0  0  0  0  0  0  0  0  0
   25.0702    5.0957   12.6424 C   0  0  0  0  0  0  0  0  0  0  0  0
   26.0739    6.9406   13.2725 C   0  0  1  0  0  0  0  0  0  0  0  0
   25.9410   15.7833    4.3909 F   0  0  0  0  0  0  0  0  0  0  0  0
  1  2  1  1  0  0  0
  1 10  1  0  0  0  0
  1  3  1  0  0  0  0
  3  4  1  1  0  0  0
  3  6  1  0  0  0  0
  5 46  2  0  0  0  0
  6 42  1  6  0  0  0
  6  8  1  0  0  0  0
  7 47  1  0  0  0  0
  8  9  1  0  0  0  0
  8 49  1  6  0  0  0
  9 10  1  0  0  0  0
  9 11  1  6  0  0  0
 11 12  1  0  0  0  0
 13 14  1  6  0  0  0
 13 15  1  0  0  0  0
 13 21  1  0  0  0  0
 14 46  1  0  0  0  0
 15 16  1  0  0  0  0
 16 17  1  6  0  0  0
 16 18  1  0  0  0  0
 18  2  1  1  0  0  0
 18 19  1  0  0  0  0
 19 20  1  6  0  0  0
 19 21  1  0  0  0  0
 21 22  1  1  0  0  0
 23 20  1  1  0  0  0
 23 24  1  0  0  0  0
 23 28  1  0  0  0  0
 24 25  1  6  0  0  0
 24 26  1  0  0  0  0
 26 27  1  0  0  0  0
 26 32  1  6  0  0  0
 27 28  1  0  0  0  0
 27 29  1  1  0  0  0
 29 30  1  0  0  0  0
 31 32  1  6  0  0  0
 31 33  1  0  0  0  0
 31 39  1  0  0  0  0
 33 36  1  0  0  0  0
 33 41  1  6  0  0  0
 34 40  1  0  0  0  0
 35 48  1  0  0  0  0
 36 37  1  0  0  0  0
 36 45  1  1  0  0  0
 37 38  1  0  0  0  0
 37 44  1  6  0  0  0
 38 39  1  0  0  0  0
 38 40  1  6  0  0  0
 43 47  1  0  0  0  0
 46 48  1  0  0  0  0
 48 43  1  6  0  0  0
M  END
>  <CHROM.1>
-62.71310899,-66.31055622,62.48934330,-101.24538365,-60.78607962,176.49599740
-165.26337425,-66.94198161,-71.65215036,-62.22870106,-58.81380570,-79.28182495
-13.12157652,27.61236994,10.72171050,6.99363218,0.95761970,1.12908425,-0.70203771

>  <Name>
ligand

>  <RI>
0

>  <Rbt.Current_Directory>
/home/itssahil/PROJECTS/Mol_Feturizer/New_Systems/rnas/4PDQ

>  <Rbt.Executable>
rbdock ($Id: //depot/dev/client3/rdock/2013.1/src/exe/rbdock.cxx#4 $)

>  <Rbt.Library>
libRbt.so (2013.1, Build901 2013/11/27)

>  <Rbt.Parameter_File>
/export/apps/rDock/src/rDock_2013.1_src/data/scripts/dock_solv.prm

>  <Rbt.Receptor>
prm/pocket_docking_6.prm

>  <SCORE>
-8.54693

>  <SCORE.INTER>
1.14304

>  <SCORE.INTER.CONST>
1

>  <SCORE.INTER.POLAR>
0

>  <SCORE.INTER.ROT>
13

>  <SCORE.INTER.SOLV>
15.395

>  <SCORE.INTER.VDW>
-16.6363

>  <SCORE.INTER.norm>
0.0233273

>  <SCORE.INTRA>
-9.6991

>  <SCORE.INTRA.DIHEDRAL>
-29.1217

>  <SCORE.INTRA.DIHEDRAL.0>
34.5115

>  <SCORE.INTRA.POLAR>
0

>  <SCORE.INTRA.POLAR.0>
0

>  <SCORE.INTRA.REPUL>
0.0308196

>  <SCORE.INTRA.REPUL.0>
0

>  <SCORE.INTRA.SOLV>
4.83094

>  <SCORE.INTRA.SOLV.lig_0>
-122.812

>  <SCORE.INTRA.VDW>
2.29216

>  <SCORE.INTRA.VDW.0>
-7.46208

>  <SCORE.INTRA.norm>
-0.197941

>  <SCORE.RESTR>
0.00913841

>  <SCORE.RESTR.CAVITY>
0.00913841

>  <SCORE.RESTR.norm>
0.000186498

>  <SCORE.SYSTEM>
0

>  <SCORE.SYSTEM.CONST>
0

>  <SCORE.SYSTEM.DIHEDRAL>
0

>  <SCORE.SYSTEM.SOLV>
0

>  <SCORE.SYSTEM.norm>
0

>  <SCORE.heavy>
49

>  <SCORE.norm>
-0.174427

>  <RMSD>
9.701

$$$$
ligand
 OpenBabel11021811513D
libRbt.so/2013.1/901 2013/11/27
 49 52  0  0  0  0  0  0  0  0999 V2000
   26.8427    6.9205    5.4579 C   0  0  2  0  0  0  0  0  0  0  0  0
   26.3548    6.7736    4.1569 O   0  0  0  0  0  0  0  0  0  0  0  0
   25.7326    7.5600    6.3722 C   0  0  2  0  0  0  0  0  0  0  0  0
   24.5039    6.6641    6.3649 N   0  0  0  0  0  0  0  0  0  0  0  0
   23.3518    8.1937   -1.5428 O   0  0  0  0  0  0  0  0  0  0  0  0
   25.3923    8.9885    5.8871 C   0  0  2  0  0  0  0  0  0  0  0  0
   22.8818   12.8419   -4.0982 N   0  0  0  0  0  0  0  0  0  0  0  0
   26.6522    9.8685    5.8841 C   0  0  2  0  0  0  0  0  0  0  0  0
   27.7969    9.2536    4.9725 C   0  0  2  0  0  0  0  0  0  0  0  0
   28.0613    7.8259    5.4542 O   0  0  0  0  0  0  0  0  0  0  0  0
   29.0884   10.1206    5.0184 C   0  0  0  0  0  0  0  0  0  0  0  0
   28.9063   11.4461    4.5454 N   0  0  0  0  0  0  0  0  0  0  0  0
   25.6607    8.4378    0.2134 C   0  0  2  0  0  0  0  0  0  0  0  0
   25.3263    9.4382   -0.8423 N   0  0  0  0  0  0  0  0  0  0  0  0
   24.5522    8.5826    1.3653 C   0  0  0  0  0  0  0  0  0  0  0  0
   24.8164    7.5403    2.5151 C   0  0  2  0  0  0  0  0  0  0  0  0
   23.8188    7.6766    3.5866 N   0  0  0  0  0  0  0  0  0  0  0  0
   26.2144    7.7622    3.1261 C   0  0  2  0  0  0  0  0  0  0  0  0
   27.3322    7.6304    2.0142 C   0  0  2  0  0  0  0  0  0  0  0  0
   28.6227    7.8504    2.6966 O   0  0  0  0  0  0  0  0  0  0  0  0
   27.0765    8.7510    0.8827 C   0  0  1  0  0  0  0  0  0  0  0  0
   28.0738    8.6238   -0.0812 O   0  0  0  0  0  0  0  0  0  0  0  0
   29.7736    7.3832    2.3500 C   0  0  1  0  0  0  0  0  0  0  0  0
   30.0177    5.8799    2.6742 C   0  0  2  0  0  0  0  0  0  0  0  0
   30.6002    5.7985    3.9367 O   0  0  0  0  0  0  0  0  0  0  0  0
   30.9878    5.5805    1.6078 C   0  0  1  0  0  0  0  0  0  0  0  0
   30.5413    6.3365    0.3183 C   0  0  2  0  0  0  0  0  0  0  0  0
   30.0916    7.5222    0.9269 O   0  0  0  0  0  0  0  0  0  0  0  0
   29.5883    5.6252   -0.6433 C   0  0  0  0  0  0  0  0  0  0  0  0
   29.4839    6.4559   -1.7843 O   0  0  0  0  0  0  0  0  0  0  0  0
   33.4243    5.7376    1.3587 C   0  0  2  0  0  0  0  0  0  0  0  0
   32.3248    6.0329    2.1118 O   0  0  0  0  0  0  0  0  0  0  0  0
   34.6955    6.1911    2.0140 C   0  0  1  0  0  0  0  0  0  0  0  0
   34.1917    8.2237   -2.3704 N   0  0  0  0  0  0  0  0  0  0  0  0
   22.8640    9.9491   -3.6862 O   0  0  0  0  0  0  0  0  0  0  0  0
   35.9165    5.8651    1.0690 C   0  0  2  0  0  0  0  0  0  0  0  0
   35.7962    6.5040   -0.3580 C   0  0  1  0  0  0  0  0  0  0  0  0
   34.5718    6.0456   -0.9714 C   0  0  1  0  0  0  0  0  0  0  0  0
   33.3810    6.3472   -0.0814 O   0  0  0  0  0  0  0  0  0  0  0  0
   34.3861    6.7052   -2.4079 C   0  0  0  0  0  0  0  0  0  0  0  0
   34.6619    7.5850    2.2196 N   0  0  0  0  0  0  0  0  0  0  0  0
   24.6155    9.4457    6.5897 O   0  0  0  0  0  0  0  0  0  0  0  0
   23.4846   11.4184   -2.0688 C   0  0  0  0  0  0  0  0  0  0  0  0
   35.7486    7.6448   -0.2403 O   0  0  0  0  0  0  0  0  0  0  0  0
   35.9589    4.7254    0.9189 O   0  0  0  0  0  0  0  0  0  0  0  0
   24.1049    9.1697   -1.6698 C   0  0  0  0  0  0  0  0  0  0  0  0
   23.5703   12.5107   -2.9027 C   0  0  0  0  0  0  0  0  0  0  0  0
   23.8698   10.3434   -2.7554 C   0  0  1  0  0  0  0  0  0  0  0  0
   27.1531    9.9922    7.1922 F   0  0  0  0  0  0  0  0  0  0  0  0
  1  2  1  6  0  0  0
  1 10  1  0  0  0  0
  1  3  1  0  0  0  0
  3  4  1  6  0  0  0
  3  6  1  0  0  0  0
  5 46  2  0  0  0  0
  6 42  1  1  0  0  0
  6  8  1  0  0  0  0
  7 47  1  0  0  0  0
  8  9  1  0  0  0  0
  8 49  1  1  0  0  0
  9 10  1  0  0  0  0
  9 11  1  1  0  0  0
 11 12  1  0  0  0  0
 13 14  1  6  0  0  0
 13 15  1  0  0  0  0
 13 21  1  0  0  0  0
 14 46  1  0  0  0  0
 15 16  1  0  0  0  0
 16 17  1  1  0  0  0
 16 18  1  0  0  0  0
 18  2  1  1  0  0  0
 18 19  1  0  0  0  0
 19 20  1  1  0  0  0
 19 21  1  0  0  0  0
 21 22  1  6  0  0  0
 23 20  1  6  0  0  0
 23 24  1  0  0  0  0
 23 28  1  0  0  0  0
 24 25  1  1  0  0  0
 24 26  1  0  0  0  0
 26 27  1  0  0  0  0
 26 32  1  1  0  0  0
 27 28  1  0  0  0  0
 27 29  1  1  0  0  0
 29 30  1  0  0  0  0
 31 32  1  1  0  0  0
 31 33  1  0  0  0  0
 31 39  1  0  0  0  0
 33 36  1  0  0  0  0
 33 41  1  6  0  0  0
 34 40  1  0  0  0  0
 35 48  1  0  0  0  0
 36 37  1  0  0  0  0
 36 45  1  6  0  0  0
 37 38  1  0  0  0  0
 37 44  1  1  0  0  0
 38 39  1  0  0  0  0
 38 40  1  6  0  0  0
 43 47  1  0  0  0  0
 46 48  1  0  0  0  0
 48 43  1  1  0  0  0
M  END
>  <CHROM.1>
78.60570373,-135.01050969,-61.15909378,-70.63319416,152.65670050,-76.19968571
173.29726314,-172.99431935,-177.24970067,-65.21628467,63.94205593,-74.17782178
-11.72730247,28.64203328,7.95731509,1.60035928,-3.10673681,0.32386286,-1.44574291

>  <Name>
ligand

>  <RI>
0

>  <Rbt.Current_Directory>
/home/itssahil/PROJECTS/Mol_Feturizer/New_Systems/rnas/4PDQ

>  <Rbt.Executable>
rbdock ($Id: //depot/dev/client3/rdock/2013.1/src/exe/rbdock.cxx#4 $)

>  <Rbt.Library>
libRbt.so (2013.1, Build901 2013/11/27)

>  <Rbt.Parameter_File>
/export/apps/rDock/src/rDock_2013.1_src/data/scripts/dock_solv.prm

>  <Rbt.Receptor>
prm/pocket_docking_6.prm

>  <SCORE>
-10.9171

>  <SCORE.INTER>
-4.2697

>  <SCORE.INTER.CONST>
1

>  <SCORE.INTER.POLAR>
0

>  <SCORE.INTER.ROT>
13

>  <SCORE.INTER.SOLV>
16.1191

>  <SCORE.INTER.VDW>
-20.4862

>  <SCORE.INTER.norm>
-0.0871367

>  <SCORE.INTRA>
-6.64741

>  <SCORE.INTRA.DIHEDRAL>
-20.086

>  <SCORE.INTRA.DIHEDRAL.0>
34.5115

>  <SCORE.INTRA.POLAR>
0

>  <SCORE.INTRA.POLAR.0>
0

>  <SCORE.INTRA.REPUL>
0

>  <SCORE.INTRA.REPUL.0>
0

>  <SCORE.INTRA.SOLV>
4.19115

>  <SCORE.INTRA.SOLV.lig_0>
-122.812

>  <SCORE.INTRA.VDW>
1.30001

>  <SCORE.INTRA.VDW.0>
-7.46208

>  <SCORE.INTRA.norm>
-0.135661

>  <SCORE.RESTR>
0

>  <SCORE.RESTR.CAVITY>
0

>  <SCORE.RESTR.norm>
0

>  <SCORE.SYSTEM>
0

>  <SCORE.SYSTEM.CONST>
0

>  <SCORE.SYSTEM.DIHEDRAL>
0

>  <SCORE.SYSTEM.SOLV>
0

>  <SCORE.SYSTEM.norm>
0

>  <SCORE.heavy>
49

>  <SCORE.norm>
-0.222798

>  <RMSD>
9.727

$$$$
ligand
 OpenBabel11021811513D
libRbt.so/2013.1/901 2013/11/27
 49 52  0  0  0  0  0  0  0  0999 V2000
   26.6281    6.0657   10.9930 C   0  0  2  0  0  0  0  0  0  0  0  0
   27.1571    7.3035   10.6186 O   0  0  0  0  0  0  0  0  0  0  0  0
   25.7882    6.2252   12.3145 C   0  0  2  0  0  0  0  0  0  0  0  0
   24.6709    7.2290   12.0768 N   0  0  0  0  0  0  0  0  0  0  0  0
   32.7568    8.6898    6.8619 O   0  0  0  0  0  0  0  0  0  0  0  0
   26.7011    6.6632   13.4835 C   0  0  2  0  0  0  0  0  0  0  0  0
   33.4071   10.4042    1.9312 N   0  0  0  0  0  0  0  0  0  0  0  0
   27.8327    5.6445   13.6912 C   0  0  2  0  0  0  0  0  0  0  0  0
   28.7022    5.4552   12.3768 C   0  0  2  0  0  0  0  0  0  0  0  0
   27.7525    5.0758   11.2391 O   0  0  0  0  0  0  0  0  0  0  0  0
   29.8110    4.3819   12.5776 C   0  0  0  0  0  0  0  0  0  0  0  0
   30.6831    4.6545   13.6635 N   0  0  0  0  0  0  0  0  0  0  0  0
   29.9230    8.4175    7.4704 C   0  0  2  0  0  0  0  0  0  0  0  0
   30.4428    8.6880    6.0979 N   0  0  0  0  0  0  0  0  0  0  0  0
   29.1380    7.0188    7.4077 C   0  0  0  0  0  0  0  0  0  0  0  0
   28.5739    6.6420    8.8283 C   0  0  2  0  0  0  0  0  0  0  0  0
   27.8350    5.3718    8.7798 N   0  0  0  0  0  0  0  0  0  0  0  0
   27.6147    7.7397    9.3302 C   0  0  2  0  0  0  0  0  0  0  0  0
   28.3573    9.1350    9.3997 C   0  0  2  0  0  0  0  0  0  0  0  0
   27.3638   10.1085    9.8943 O   0  0  0  0  0  0  0  0  0  0  0  0
   28.8676    9.5281    7.9211 C   0  0  1  0  0  0  0  0  0  0  0  0
   29.5106   10.7609    8.0020 O   0  0  0  0  0  0  0  0  0  0  0  0
   26.9584   10.2545   11.1097 C   0  0  1  0  0  0  0  0  0  0  0  0
   28.0750   10.4763   12.1720 C   0  0  2  0  0  0  0  0  0  0  0  0
   28.4520    9.2315   12.6702 O   0  0  0  0  0  0  0  0  0  0  0  0
   27.2918   11.2412   13.1567 C   0  0  1  0  0  0  0  0  0  0  0  0
   26.3484   12.2108   12.3799 C   0  0  2  0  0  0  0  0  0  0  0  0
   26.0130   11.3543   11.3158 O   0  0  0  0  0  0  0  0  0  0  0  0
   26.8720   13.6050   12.0323 C   0  0  0  0  0  0  0  0  0  0  0  0
   25.7947   14.2928   11.4248 O   0  0  0  0  0  0  0  0  0  0  0  0
   25.8344   10.6871   15.0520 C   0  0  2  0  0  0  0  0  0  0  0  0
   26.5420   10.2347   13.9758 O   0  0  0  0  0  0  0  0  0  0  0  0
   26.7281   11.0662   16.1960 C   0  0  1  0  0  0  0  0  0  0  0  0
   23.5529    7.6375   17.5257 N   0  0  0  0  0  0  0  0  0  0  0  0
   31.2314    9.6573    3.7100 O   0  0  0  0  0  0  0  0  0  0  0  0
   25.8448   11.5296   17.4187 C   0  0  2  0  0  0  0  0  0  0  0  0
   24.8063   10.4528   17.8889 C   0  0  1  0  0  0  0  0  0  0  0  0
   23.9527   10.1119   16.7751 C   0  0  1  0  0  0  0  0  0  0  0  0
   24.7788    9.6629   15.5848 O   0  0  0  0  0  0  0  0  0  0  0  0
   22.9084    8.9869   17.1959 C   0  0  0  0  0  0  0  0  0  0  0  0
   27.4890    9.9522   16.6038 N   0  0  0  0  0  0  0  0  0  0  0  0
   26.0768    6.7323   14.4384 O   0  0  0  0  0  0  0  0  0  0  0  0
   33.3659    9.9300    4.4376 C   0  0  0  0  0  0  0  0  0  0  0  0
   25.3814    9.5152   18.2171 O   0  0  0  0  0  0  0  0  0  0  0  0
   25.2403   12.4529   17.0943 O   0  0  0  0  0  0  0  0  0  0  0  0
   31.9301    8.8059    5.9461 C   0  0  0  0  0  0  0  0  0  0  0  0
   33.9232    9.9691    3.1791 C   0  0  0  0  0  0  0  0  0  0  0  0
   32.3360    9.0852    4.4070 C   0  0  1  0  0  0  0  0  0  0  0  0
   27.2933    4.3945   14.0433 F   0  0  0  0  0  0  0  0  0  0  0  0
  1  2  1  1  0  0  0
  1 10  1  0  0  0  0
  1  3  1  0  0  0  0
  3  4  1  6  0  0  0
  3  6  1  0  0  0  0
  5 46  2  0  0  0  0
  6 42  1  1  0  0  0
  6  8  1  0  0  0  0
  7 47  1  0  0  0  0
  8  9  1  0  0  0  0
  8 49  1  6  0  0  0
  9 10  1  0  0  0  0
  9 11  1  1  0  0  0
 11 12  1  0  0  0  0
 13 14  1  6  0  0  0
 13 15  1  0  0  0  0
 13 21  1  0  0  0  0
 14 46  1  0  0  0  0
 15 16  1  0  0  0  0
 16 17  1  6  0  0  0
 16 18  1  0  0  0  0
 18  2  1  1  0  0  0
 18 19  1  0  0  0  0
 19 20  1  6  0  0  0
 19 21  1  0  0  0  0
 21 22  1  1  0  0  0
 23 20  1  6  0  0  0
 23 24  1  0  0  0  0
 23 28  1  0  0  0  0
 24 25  1  1  0  0  0
 24 26  1  0  0  0  0
 26 27  1  0  0  0  0
 26 32  1  6  0  0  0
 27 28  1  0  0  0  0
 27 29  1  6  0  0  0
 29 30  1  0  0  0  0
 31 32  1  6  0  0  0
 31 33  1  0  0  0  0
 31 39  1  0  0  0  0
 33 36  1  0  0  0  0
 33 41  1  1  0  0  0
 34 40  1  0  0  0  0
 35 48  1  0  0  0  0
 36 37  1  0  0  0  0
 36 45  1  6  0  0  0
 37 38  1  0  0  0  0
 37 44  1  6  0  0  0
 38 39  1  0  0  0  0
 38 40  1  1  0  0  0
 43 47  1  0  0  0  0
 46 48  1  0  0  0  0
 48 43  1  1  0  0  0
M  END
>  <CHROM.1>
-158.63256708,-49.88811019,-56.67960592,-119.28850585,76.79450064,54.17057386
173.77079909,-175.95455384,-73.92433802,-66.00416293,63.82400046,-73.33861869
-158.17849432,27.82958008,8.86962821,11.47578882,-2.98834896,1.03956324,-0.22206887

>  <Name>
ligand

>  <RI>
0

>  <Rbt.Current_Directory>
/home/itssahil/PROJECTS/Mol_Feturizer/New_Systems/rnas/4PDQ

>  <Rbt.Executable>
rbdock ($Id: //depot/dev/client3/rdock/2013.1/src/exe/rbdock.cxx#4 $)

>  <Rbt.Library>
libRbt.so (2013.1, Build901 2013/11/27)

>  <Rbt.Parameter_File>
/export/apps/rDock/src/rDock_2013.1_src/data/scripts/dock_solv.prm

>  <Rbt.Receptor>
prm/pocket_docking_8.prm

>  <SCORE>
-10.214

>  <SCORE.INTER>
-2.98607

>  <SCORE.INTER.CONST>
1

>  <SCORE.INTER.POLAR>
0

>  <SCORE.INTER.ROT>
13

>  <SCORE.INTER.SOLV>
17.8875

>  <SCORE.INTER.VDW>
-20.2199

>  <SCORE.INTER.norm>
-0.0609402

>  <SCORE.INTRA>
-7.22796

>  <SCORE.INTRA.DIHEDRAL>
-25.2926

>  <SCORE.INTRA.DIHEDRAL.0>
34.5115

>  <SCORE.INTRA.POLAR>
0

>  <SCORE.INTRA.POLAR.0>
0

>  <SCORE.INTRA.REPUL>
0.0913204

>  <SCORE.INTRA.REPUL.0>
0

>  <SCORE.INTRA.SOLV>
2.94909

>  <SCORE.INTRA.SOLV.lig_0>
-122.812

>  <SCORE.INTRA.VDW>
3.48719

>  <SCORE.INTRA.VDW.0>
-7.46208

>  <SCORE.INTRA.norm>
-0.147509

>  <SCORE.RESTR>
0

>  <SCORE.RESTR.CAVITY>
0

>  <SCORE.RESTR.norm>
0

>  <SCORE.SYSTEM>
0

>  <SCORE.SYSTEM.CONST>
0

>  <SCORE.SYSTEM.DIHEDRAL>
0

>  <SCORE.SYSTEM.SOLV>
0

>  <SCORE.SYSTEM.norm>
0

>  <SCORE.heavy>
49

>  <SCORE.norm>
-0.20845

>  <RMSD>
9.732

$$$$
ligand
 OpenBabel11021811513D
libRbt.so/2013.1/901 2013/11/27
 49 52  0  0  0  0  0  0  0  0999 V2000
   23.9371   15.0844    6.9231 C   0  0  2  0  0  0  0  0  0  0  0  0
   24.2713   14.1189    7.8760 O   0  0  0  0  0  0  0  0  0  0  0  0
   24.0088   14.4554    5.4822 C   0  0  2  0  0  0  0  0  0  0  0  0
   23.0487   13.2788    5.4036 N   0  0  0  0  0  0  0  0  0  0  0  0
   26.8607   18.3608   12.1507 O   0  0  0  0  0  0  0  0  0  0  0  0
   25.4575   14.0245    5.1540 C   0  0  2  0  0  0  0  0  0  0  0  0
   25.6617   17.3785   16.2627 N   0  0  0  0  0  0  0  0  0  0  0  0
   26.4112   15.2249    5.2593 C   0  0  2  0  0  0  0  0  0  0  0  0
   26.3650   15.8880    6.7007 C   0  0  2  0  0  0  0  0  0  0  0  0
   24.9091   16.2479    7.0028 O   0  0  0  0  0  0  0  0  0  0  0  0
   27.2910   17.1360    6.7829 C   0  0  0  0  0  0  0  0  0  0  0  0
   26.8277   18.2446    6.0277 N   0  0  0  0  0  0  0  0  0  0  0  0
   27.0898   15.8643   10.6710 C   0  0  2  0  0  0  0  0  0  0  0  0
   27.8072   16.1240   11.9536 N   0  0  0  0  0  0  0  0  0  0  0  0
   25.5209   15.8337   11.0086 C   0  0  0  0  0  0  0  0  0  0  0  0
   24.6826   15.5878    9.6990 C   0  0  2  0  0  0  0  0  0  0  0  0
   23.2439   15.5375    9.9984 N   0  0  0  0  0  0  0  0  0  0  0  0
   25.0876   14.2496    9.0492 C   0  0  2  0  0  0  0  0  0  0  0  0
   26.6322   14.2450    8.7071 C   0  0  2  0  0  0  0  0  0  0  0  0
   26.9150   12.9352    8.0876 O   0  0  0  0  0  0  0  0  0  0  0  0
   27.4692   14.4329   10.0729 C   0  0  1  0  0  0  0  0  0  0  0  0
   28.8244   14.4182    9.7520 O   0  0  0  0  0  0  0  0  0  0  0  0
   26.8931   11.7824    8.6650 C   0  0  1  0  0  0  0  0  0  0  0  0
   28.0542   11.5058    9.6650 C   0  0  2  0  0  0  0  0  0  0  0  0
   29.0941   10.8999    8.9640 O   0  0  0  0  0  0  0  0  0  0  0  0
   27.3623   10.5493   10.5450 C   0  0  1  0  0  0  0  0  0  0  0  0
   25.8897   11.0317   10.7247 C   0  0  2  0  0  0  0  0  0  0  0  0
   25.6683   11.4919    9.4141 O   0  0  0  0  0  0  0  0  0  0  0  0
   25.5778   11.9886   11.8763 C   0  0  0  0  0  0  0  0  0  0  0  0
   26.7244   12.8023   12.0369 O   0  0  0  0  0  0  0  0  0  0  0  0
   26.9969    8.1225   10.5567 C   0  0  2  0  0  0  0  0  0  0  0  0
   27.4568    9.2120    9.8750 O   0  0  0  0  0  0  0  0  0  0  0  0
   26.8628    8.3919   12.0266 C   0  0  1  0  0  0  0  0  0  0  0  0
   29.7392    4.4749   11.5694 N   0  0  0  0  0  0  0  0  0  0  0  0
   29.6078   18.3449   13.7611 O   0  0  0  0  0  0  0  0  0  0  0  0
   26.3777    7.0798   12.7569 C   0  0  2  0  0  0  0  0  0  0  0  0
   27.3180    5.8465   12.5256 C   0  0  1  0  0  0  0  0  0  0  0  0
   27.4235    5.6012   11.1064 C   0  0  1  0  0  0  0  0  0  0  0  0
   27.8884    6.8492   10.3801 O   0  0  0  0  0  0  0  0  0  0  0  0
   28.4059    4.3818   10.8220 C   0  0  0  0  0  0  0  0  0  0  0  0
   28.1126    8.7560   12.5666 N   0  0  0  0  0  0  0  0  0  0  0  0
   25.4909   13.6093    4.0896 O   0  0  0  0  0  0  0  0  0  0  0  0
   27.6157   18.1998   14.8429 C   0  0  0  0  0  0  0  0  0  0  0  0
   28.3585    6.1031   12.9368 O   0  0  0  0  0  0  0  0  0  0  0  0
   25.3471    6.7943   12.3332 O   0  0  0  0  0  0  0  0  0  0  0  0
   27.5898   17.4623   12.5944 C   0  0  0  0  0  0  0  0  0  0  0  0
   26.7440   17.2636   15.3526 C   0  0  0  0  0  0  0  0  0  0  0  0
   28.4197   17.5862   13.9754 C   0  0  1  0  0  0  0  0  0  0  0  0
   26.0548   16.2040    4.3150 F   0  0  0  0  0  0  0  0  0  0  0  0
  1  2  1  1  0  0  0
  1 10  1  0  0  0  0
  1  3  1  0  0  0  0
  3  4  1  1  0  0  0
  3  6  1  0  0  0  0
  5 46  2  0  0  0  0
  6 42  1  6  0  0  0
  6  8  1  0  0  0  0
  7 47  1  0  0  0  0
  8  9  1  0  0  0  0
  8 49  1  6  0  0  0
  9 10  1  0  0  0  0
  9 11  1  6  0  0  0
 11 12  1  0  0  0  0
 13 14  1  1  0  0  0
 13 15  1  0  0  0  0
 13 21  1  0  0  0  0
 14 46  1  0  0  0  0
 15 16  1  0  0  0  0
 16 17  1  1  0  0  0
 16 18  1  0  0  0  0
 18  2  1  6  0  0  0
 18 19  1  0  0  0  0
 19 20  1  1  0  0  0
 19 21  1  0  0  0  0
 21 22  1  6  0  0  0
 23 20  1  1  0  0  0
 23 24  1  0  0  0  0
 23 28  1  0  0  0  0
 24 25  1  6  0  0  0
 24 26  1  0  0  0  0
 26 27  1  0  0  0  0
 26 32  1  6  0  0  0
 27 28  1  0  0  0  0
 27 29  1  1  0  0  0
 29 30  1  0  0  0  0
 31 32  1  6  0  0  0
 31 33  1  0  0  0  0
 31 39  1  0  0  0  0
 33 36  1  0  0  0  0
 33 41  1  1  0  0  0
 34 40  1  0  0  0  0
 35 48  1  0  0  0  0
 36 37  1  0  0  0  0
 36 45  1  6  0  0  0
 37 38  1  0  0  0  0
 37 44  1  6  0  0  0
 38 39  1  0  0  0  0
 38 40  1  1  0  0  0
 43 47  1  0  0  0  0
 46 48  1  0  0  0  0
 48 43  1  1  0  0  0
M  END
>  <CHROM.1>
138.37671785,42.74793258,69.71521358,-65.98276498,-68.60360959,-71.34677519
173.91162521,33.39021935,-17.82849294,-48.46996343,-177.34769837,-159.93409599
-79.90223549,26.65234486,12.88100455,9.96823734,2.10738197,-1.30332246,0.27874086

>  <Name>
ligand

>  <RI>
0

>  <Rbt.Current_Directory>
/home/itssahil/PROJECTS/Mol_Feturizer/New_Systems/rnas/4PDQ

>  <Rbt.Executable>
rbdock ($Id: //depot/dev/client3/rdock/2013.1/src/exe/rbdock.cxx#4 $)

>  <Rbt.Library>
libRbt.so (2013.1, Build901 2013/11/27)

>  <Rbt.Parameter_File>
/export/apps/rDock/src/rDock_2013.1_src/data/scripts/dock_solv.prm

>  <Rbt.Receptor>
prm/blind_docking_100.prm

>  <SCORE>
45.253

>  <SCORE.INTER>
35.2538

>  <SCORE.INTER.CONST>
1

>  <SCORE.INTER.POLAR>
0

>  <SCORE.INTER.ROT>
13

>  <SCORE.INTER.SOLV>
33.3009

>  <SCORE.INTER.VDW>
0.135551

>  <SCORE.INTER.norm>
0.719465

>  <SCORE.INTRA>
3.6862

>  <SCORE.INTRA.DIHEDRAL>
-14.1657

>  <SCORE.INTRA.DIHEDRAL.0>
34.5115

>  <SCORE.INTRA.POLAR>
0

>  <SCORE.INTRA.POLAR.0>
0

>  <SCORE.INTRA.REPUL>
0

>  <SCORE.INTRA.REPUL.0>
0

>  <SCORE.INTRA.SOLV>
3.49754

>  <SCORE.INTRA.SOLV.lig_0>
-122.812

>  <SCORE.INTRA.VDW>
9.02029

>  <SCORE.INTRA.VDW.0>
-7.46208

>  <SCORE.INTRA.norm>
0.0752286

>  <SCORE.RESTR>
6.31303

>  <SCORE.RESTR.CAVITY>
6.31303

>  <SCORE.RESTR.norm>
0.128837

>  <SCORE.SYSTEM>
0

>  <SCORE.SYSTEM.CONST>
0

>  <SCORE.SYSTEM.DIHEDRAL>
0

>  <SCORE.SYSTEM.SOLV>
0

>  <SCORE.SYSTEM.norm>
0

>  <SCORE.heavy>
49

>  <SCORE.norm>
0.923531

>  <RMSD>
9.735

$$$$
ligand
 OpenBabel11021811513D
libRbt.so/2013.1/901 2013/11/27
 49 52  0  0  0  0  0  0  0  0999 V2000
   26.6221    7.7979    3.4471 C   0  0  2  0  0  0  0  0  0  0  0  0
   25.9399    8.0435    4.6414 O   0  0  0  0  0  0  0  0  0  0  0  0
   26.2603    8.9076    2.3913 C   0  0  2  0  0  0  0  0  0  0  0  0
   26.6421   10.2698    2.9492 N   0  0  0  0  0  0  0  0  0  0  0  0
   24.6362    8.2991   11.1244 O   0  0  0  0  0  0  0  0  0  0  0  0
   24.7562    8.8443    2.0370 C   0  0  2  0  0  0  0  0  0  0  0  0
   24.2557    3.4526   12.0779 N   0  0  0  0  0  0  0  0  0  0  0  0
   24.3909    7.4537    1.4946 C   0  0  2  0  0  0  0  0  0  0  0  0
   24.7436    6.3061    2.5330 C   0  0  2  0  0  0  0  0  0  0  0  0
   26.2241    6.4414    2.8937 O   0  0  0  0  0  0  0  0  0  0  0  0
   24.4226    4.8973    1.9551 C   0  0  0  0  0  0  0  0  0  0  0  0
   25.3167    4.4783    0.9359 N   0  0  0  0  0  0  0  0  0  0  0  0
   26.1808    7.2399    8.8957 C   0  0  2  0  0  0  0  0  0  0  0  0
   26.0189    6.5214   10.1936 N   0  0  0  0  0  0  0  0  0  0  0  0
   24.7753    7.1426    8.1267 C   0  0  0  0  0  0  0  0  0  0  0  0
   24.8500    7.9006    6.7490 C   0  0  2  0  0  0  0  0  0  0  0  0
   23.5738    7.8014    6.0254 N   0  0  0  0  0  0  0  0  0  0  0  0
   25.9555    7.2914    5.8637 C   0  0  2  0  0  0  0  0  0  0  0  0
   27.3561    7.3677    6.5955 C   0  0  2  0  0  0  0  0  0  0  0  0
   28.3396    6.7713    5.6701 O   0  0  0  0  0  0  0  0  0  0  0  0
   27.2719    6.5295    7.9709 C   0  0  1  0  0  0  0  0  0  0  0  0
   28.5148    6.6021    8.5952 O   0  0  0  0  0  0  0  0  0  0  0  0
   29.4180    7.3200    5.2241 C   0  0  1  0  0  0  0  0  0  0  0  0
   30.6963    7.0936    6.0839 C   0  0  2  0  0  0  0  0  0  0  0  0
   30.7936    8.1394    6.9986 O   0  0  0  0  0  0  0  0  0  0  0  0
   31.7026    7.2107    5.0154 C   0  0  1  0  0  0  0  0  0  0  0  0
   31.1378    6.5167    3.7376 C   0  0  2  0  0  0  0  0  0  0  0  0
   29.7965    6.9203    3.8667 O   0  0  0  0  0  0  0  0  0  0  0  0
   31.4158    5.0256    3.5420 C   0  0  0  0  0  0  0  0  0  0  0  0
   30.9579    4.7044    2.2421 O   0  0  0  0  0  0  0  0  0  0  0  0
   32.8377    9.0540    3.8590 C   0  0  2  0  0  0  0  0  0  0  0  0
   31.9447    8.6769    4.8201 O   0  0  0  0  0  0  0  0  0  0  0  0
   33.0202   10.5425    3.8112 C   0  0  1  0  0  0  0  0  0  0  0  0
   31.5120    8.8413   -0.4828 N   0  0  0  0  0  0  0  0  0  0  0  0
   25.4777    7.0705   13.7205 O   0  0  0  0  0  0  0  0  0  0  0  0
   34.0222   10.9097    2.6488 C   0  0  2  0  0  0  0  0  0  0  0  0
   33.5738   10.3832    1.2415 C   0  0  1  0  0  0  0  0  0  0  0  0
   33.4145    8.9495    1.3100 C   0  0  1  0  0  0  0  0  0  0  0  0
   32.4548    8.5696    2.4216 O   0  0  0  0  0  0  0  0  0  0  0  0
   32.9164    8.3756   -0.0884 C   0  0  0  0  0  0  0  0  0  0  0  0
   31.7881   11.1714    3.5413 N   0  0  0  0  0  0  0  0  0  0  0  0
   24.5274    9.6312    1.2402 O   0  0  0  0  0  0  0  0  0  0  0  0
   23.8356    5.8959   12.6794 C   0  0  0  0  0  0  0  0  0  0  0  0
   32.5609   10.8579    0.9839 O   0  0  0  0  0  0  0  0  0  0  0  0
   35.0351   10.4158    2.8798 O   0  0  0  0  0  0  0  0  0  0  0  0
   25.1954    7.2001   11.2473 C   0  0  0  0  0  0  0  0  0  0  0  0
   23.6931    4.7470   11.9340 C   0  0  0  0  0  0  0  0  0  0  0  0
   25.1030    6.2958   12.5835 C   0  0  1  0  0  0  0  0  0  0  0  0
   25.0991    7.2018    0.3062 F   0  0  0  0  0  0  0  0  0  0  0  0
  1  2  1  1  0  0  0
  1 10  1  0  0  0  0
  1  3  1  0  0  0  0
  3  4  1  1  0  0  0
  3  6  1  0  0  0  0
  5 46  2  0  0  0  0
  6 42  1  6  0  0  0
  6  8  1  0  0  0  0
  7 47  1  0  0  0  0
  8  9  1  0  0  0  0
  8 49  1  6  0  0  0
  9 10  1  0  0  0  0
  9 11  1  6  0  0  0
 11 12  1  0  0  0  0
 13 14  1  1  0  0  0
 13 15  1  0  0  0  0
 13 21  1  0  0  0  0
 14 46  1  0  0  0  0
 15 16  1  0  0  0  0
 16 17  1  6  0  0  0
 16 18  1  0  0  0  0
 18  2  1  6  0  0  0
 18 19  1  0  0  0  0
 19 20  1  6  0  0  0
 19 21  1  0  0  0  0
 21 22  1  1  0  0  0
 23 20  1  1  0  0  0
 23 24  1  0  0  0  0
 23 28  1  0  0  0  0
 24 25  1  1  0  0  0
 24 26  1  0  0  0  0
 26 27  1  0  0  0  0
 26 32  1  6  0  0  0
 27 28  1  0  0  0  0
 27 29  1  1  0  0  0
 29 30  1  0  0  0  0
 31 32  1  1  0  0  0
 31 33  1  0  0  0  0
 31 39  1  0  0  0  0
 33 36  1  0  0  0  0
 33 41  1  6  0  0  0
 34 40  1  0  0  0  0
 35 48  1  0  0  0  0
 36 37  1  0  0  0  0
 36 45  1  1  0  0  0
 37 38  1  0  0  0  0
 37 44  1  1  0  0  0
 38 39  1  0  0  0  0
 38 40  1  6  0  0  0
 43 47  1  0  0  0  0
 46 48  1  0  0  0  0
 48 43  1  1  0  0  0
M  END
>  <CHROM.1>
179.37701310,-171.15492724,71.92399887,-73.00616710,124.31303968,89.88133280
-179.19930135,-172.23711689,-177.74991223,-65.55172753,64.79798342,-154.48757242
-52.96641214,28.19190830,7.63409695,5.07510062,0.86658019,-0.25160873,-1.47494737

>  <Name>
ligand

>  <RI>
0

>  <Rbt.Current_Directory>
/home/itssahil/PROJECTS/Mol_Feturizer/New_Systems/rnas/4PDQ

>  <Rbt.Executable>
rbdock ($Id: //depot/dev/client3/rdock/2013.1/src/exe/rbdock.cxx#4 $)

>  <Rbt.Library>
libRbt.so (2013.1, Build901 2013/11/27)

>  <Rbt.Parameter_File>
/export/apps/rDock/src/rDock_2013.1_src/data/scripts/dock_solv.prm

>  <Rbt.Receptor>
prm/pocket_docking_7.prm

>  <SCORE>
-10.1217

>  <SCORE.INTER>
-2.39265

>  <SCORE.INTER.CONST>
1

>  <SCORE.INTER.POLAR>
0

>  <SCORE.INTER.ROT>
13

>  <SCORE.INTER.SOLV>
16.1763

>  <SCORE.INTER.VDW>
-19.2539

>  <SCORE.INTER.norm>
-0.0488295

>  <SCORE.INTRA>
-7.72904

>  <SCORE.INTRA.DIHEDRAL>
-17.964

>  <SCORE.INTRA.DIHEDRAL.0>
34.5115

>  <SCORE.INTRA.POLAR>
0

>  <SCORE.INTRA.POLAR.0>
0

>  <SCORE.INTRA.REPUL>
0.00584117

>  <SCORE.INTRA.REPUL.0>
0

>  <SCORE.INTRA.SOLV>
-0.448964

>  <SCORE.INTRA.SOLV.lig_0>
-122.812

>  <SCORE.INTRA.VDW>
1.44822

>  <SCORE.INTRA.VDW.0>
-7.46208

>  <SCORE.INTRA.norm>
-0.157736

>  <SCORE.RESTR>
0

>  <SCORE.RESTR.CAVITY>
0

>  <SCORE.RESTR.norm>
0

>  <SCORE.SYSTEM>
0

>  <SCORE.SYSTEM.CONST>
0

>  <SCORE.SYSTEM.DIHEDRAL>
0

>  <SCORE.SYSTEM.SOLV>
0

>  <SCORE.SYSTEM.norm>
0

>  <SCORE.heavy>
49

>  <SCORE.norm>
-0.206565

>  <RMSD>
9.748

$$$$
ligand
 OpenBabel11021811513D
libRbt.so/2013.1/901 2013/11/27
 49 52  0  0  0  0  0  0  0  0999 V2000
   29.1950    9.1568    6.3758 C   0  0  2  0  0  0  0  0  0  0  0  0
   27.9676    9.5919    5.8697 O   0  0  0  0  0  0  0  0  0  0  0  0
   29.0023    8.6106    7.8392 C   0  0  2  0  0  0  0  0  0  0  0  0
   28.0026    7.4650    7.8161 N   0  0  0  0  0  0  0  0  0  0  0  0
   25.2065    7.5828   -0.0891 O   0  0  0  0  0  0  0  0  0  0  0  0
   28.5379    9.7459    8.7812 C   0  0  2  0  0  0  0  0  0  0  0  0
   24.7268   12.3327   -2.4925 N   0  0  0  0  0  0  0  0  0  0  0  0
   29.5533   10.8994    8.7724 C   0  0  2  0  0  0  0  0  0  0  0  0
   29.7757   11.4760    7.3104 C   0  0  2  0  0  0  0  0  0  0  0  0
   30.1807   10.3110    6.4054 O   0  0  0  0  0  0  0  0  0  0  0  0
   30.8458   12.6058    7.3009 C   0  0  0  0  0  0  0  0  0  0  0  0
   30.3752   13.8456    7.8064 N   0  0  0  0  0  0  0  0  0  0  0  0
   25.9426    9.4280    2.0389 C   0  0  2  0  0  0  0  0  0  0  0  0
   25.4212    9.8736    0.7135 N   0  0  0  0  0  0  0  0  0  0  0  0
   25.5988   10.5886    3.0929 C   0  0  0  0  0  0  0  0  0  0  0  0
   26.0952   10.1876    4.5320 C   0  0  2  0  0  0  0  0  0  0  0  0
   25.8039   11.2522    5.5034 N   0  0  0  0  0  0  0  0  0  0  0  0
   27.6177    9.9452    4.5234 C   0  0  2  0  0  0  0  0  0  0  0  0
   27.9917    8.8075    3.4897 C   0  0  2  0  0  0  0  0  0  0  0  0
   29.4575    8.6477    3.5624 O   0  0  0  0  0  0  0  0  0  0  0  0
   27.5318    9.2713    2.0150 C   0  0  1  0  0  0  0  0  0  0  0  0
   27.8763    8.2616    1.1198 O   0  0  0  0  0  0  0  0  0  0  0  0
   30.3431    9.2873    2.8772 C   0  0  1  0  0  0  0  0  0  0  0  0
   30.4637   10.8093    3.1830 C   0  0  2  0  0  0  0  0  0  0  0  0
   29.6092   11.4930    2.3215 O   0  0  0  0  0  0  0  0  0  0  0  0
   31.8756   10.9965    2.8096 C   0  0  1  0  0  0  0  0  0  0  0  0
   32.6746    9.7444    3.2864 C   0  0  2  0  0  0  0  0  0  0  0  0
   31.7071    8.7662    2.9943 O   0  0  0  0  0  0  0  0  0  0  0  0
   33.2678    9.7590    4.6960 C   0  0  0  0  0  0  0  0  0  0  0  0
   32.6194   10.8094    5.3879 O   0  0  0  0  0  0  0  0  0  0  0  0
   33.1159   11.3182    0.7164 C   0  0  2  0  0  0  0  0  0  0  0  0
   31.9012   11.1686    1.3210 O   0  0  0  0  0  0  0  0  0  0  0  0
   32.9849   11.5889   -0.7536 C   0  0  1  0  0  0  0  0  0  0  0  0
   35.7082    7.6162   -0.0841 N   0  0  0  0  0  0  0  0  0  0  0  0
   23.9240    8.4208   -2.4512 O   0  0  0  0  0  0  0  0  0  0  0  0
   34.4223   11.6994   -1.3953 C   0  0  2  0  0  0  0  0  0  0  0  0
   35.3136   10.4300   -1.1653 C   0  0  1  0  0  0  0  0  0  0  0  0
   35.4329   10.1959    0.2547 C   0  0  1  0  0  0  0  0  0  0  0  0
   34.0628   10.0860    0.8965 O   0  0  0  0  0  0  0  0  0  0  0  0
   36.2954    8.8880    0.5346 C   0  0  0  0  0  0  0  0  0  0  0  0
   32.3065   10.5252   -1.3817 N   0  0  0  0  0  0  0  0  0  0  0  0
   28.4447    9.3344    9.8434 O   0  0  0  0  0  0  0  0  0  0  0  0
   23.6310   10.3593   -1.3038 C   0  0  0  0  0  0  0  0  0  0  0  0
   34.7909    9.5291   -1.6479 O   0  0  0  0  0  0  0  0  0  0  0  0
   34.9689   12.5818   -0.8996 O   0  0  0  0  0  0  0  0  0  0  0  0
   25.0899    8.8015   -0.2813 C   0  0  0  0  0  0  0  0  0  0  0  0
   24.2331   11.5949   -1.3858 C   0  0  0  0  0  0  0  0  0  0  0  0
   24.5277    9.4387   -1.6558 C   0  0  1  0  0  0  0  0  0  0  0  0
   30.7934   10.4495    9.2592 F   0  0  0  0  0  0  0  0  0  0  0  0
  1  2  1  1  0  0  0
  1 10  1  0  0  0  0
  1  3  1  0  0  0  0
  3  4  1  6  0  0  0
  3  6  1  0  0  0  0
  5 46  2  0  0  0  0
  6 42  1  1  0  0  0
  6  8  1  0  0  0  0
  7 47  1  0  0  0  0
  8  9  1  0  0  0  0
  8 49  1  6  0  0  0
  9 10  1  0  0  0  0
  9 11  1  1  0  0  0
 11 12  1  0  0  0  0
 13 14  1  6  0  0  0
 13 15  1  0  0  0  0
 13 21  1  0  0  0  0
 14 46  1  0  0  0  0
 15 16  1  0  0  0  0
 16 17  1  1  0  0  0
 16 18  1  0  0  0  0
 18  2  1  1  0  0  0
 18 19  1  0  0  0  0
 19 20  1  6  0  0  0
 19 21  1  0  0  0  0
 21 22  1  6  0  0  0
 23 20  1  1  0  0  0
 23 24  1  0  0  0  0
 23 28  1  0  0  0  0
 24 25  1  6  0  0  0
 24 26  1  0  0  0  0
 26 27  1  0  0  0  0
 26 32  1  6  0  0  0
 27 28  1  0  0  0  0
 27 29  1  1  0  0  0
 29 30  1  0  0  0  0
 31 32  1  6  0  0  0
 31 33  1  0  0  0  0
 31 39  1  0  0  0  0
 33 36  1  0  0  0  0
 33 41  1  6  0  0  0
 34 40  1  0  0  0  0
 35 48  1  0  0  0  0
 36 37  1  0  0  0  0
 36 45  1  1  0  0  0
 37 38  1  0  0  0  0
 37 44  1  6  0  0  0
 38 39  1  0  0  0  0
 38 40  1  6  0  0  0
 43 47  1  0  0  0  0
 46 48  1  0  0  0  0
 48 43  1  1  0  0  0
M  END
>  <CHROM.1>
-168.17769987,173.54127670,-76.07085233,-155.01918054,-88.80726583,67.07236743
-177.94812774,15.94994173,-175.45456851,-59.41483919,66.14053765,-140.15501184
13.03277779,29.76718954,10.10469715,2.85212056,-2.31617877,-0.07544960,-1.58652377

>  <Name>
ligand

>  <RI>
0

>  <Rbt.Current_Directory>
/home/itssahil/PROJECTS/Mol_Feturizer/New_Systems/rnas/4PDQ

>  <Rbt.Executable>
rbdock ($Id: //depot/dev/client3/rdock/2013.1/src/exe/rbdock.cxx#4 $)

>  <Rbt.Library>
libRbt.so (2013.1, Build901 2013/11/27)

>  <Rbt.Parameter_File>
/export/apps/rDock/src/rDock_2013.1_src/data/scripts/dock_solv.prm

>  <Rbt.Receptor>
prm/pocket_docking_5.prm

>  <SCORE>
-13.2903

>  <SCORE.INTER>
-5.47613

>  <SCORE.INTER.CONST>
1

>  <SCORE.INTER.POLAR>
0

>  <SCORE.INTER.ROT>
13

>  <SCORE.INTER.SOLV>
16.64

>  <SCORE.INTER.VDW>
-21.4641

>  <SCORE.INTER.norm>
-0.111758

>  <SCORE.INTRA>
-7.81421

>  <SCORE.INTRA.DIHEDRAL>
-19.1301

>  <SCORE.INTRA.DIHEDRAL.0>
34.5115

>  <SCORE.INTRA.POLAR>
0

>  <SCORE.INTRA.POLAR.0>
0

>  <SCORE.INTRA.REPUL>
0

>  <SCORE.INTRA.REPUL.0>
0

>  <SCORE.INTRA.SOLV>
-0.299665

>  <SCORE.INTRA.SOLV.lig_0>
-122.812

>  <SCORE.INTRA.VDW>
1.90066

>  <SCORE.INTRA.VDW.0>
-7.46208

>  <SCORE.INTRA.norm>
-0.159474

>  <SCORE.RESTR>
0

>  <SCORE.RESTR.CAVITY>
0

>  <SCORE.RESTR.norm>
0

>  <SCORE.SYSTEM>
0

>  <SCORE.SYSTEM.CONST>
0

>  <SCORE.SYSTEM.DIHEDRAL>
0

>  <SCORE.SYSTEM.SOLV>
0

>  <SCORE.SYSTEM.norm>
0

>  <SCORE.heavy>
49

>  <SCORE.norm>
-0.271231

>  <RMSD>
9.770

$$$$
ligand
 OpenBabel11021811513D
libRbt.so/2013.1/901 2013/11/27
 49 52  0  0  0  0  0  0  0  0999 V2000
   27.1577    7.7573    3.2461 C   0  0  2  0  0  0  0  0  0  0  0  0
   26.7097    7.7913    4.5690 O   0  0  0  0  0  0  0  0  0  0  0  0
   26.5077    8.9391    2.4349 C   0  0  2  0  0  0  0  0  0  0  0  0
   26.8852   10.2592    3.0886 N   0  0  0  0  0  0  0  0  0  0  0  0
   27.6796    7.7678   11.2655 O   0  0  0  0  0  0  0  0  0  0  0  0
   24.9728    8.7633    2.3636 C   0  0  2  0  0  0  0  0  0  0  0  0
   26.7414    4.3926   14.5687 N   0  0  0  0  0  0  0  0  0  0  0  0
   24.6166    7.4150    1.7182 C   0  0  2  0  0  0  0  0  0  0  0  0
   25.2573    6.1969    2.5090 C   0  0  2  0  0  0  0  0  0  0  0  0
   26.7648    6.4406    2.6006 O   0  0  0  0  0  0  0  0  0  0  0  0
   24.9388    4.8393    1.8183 C   0  0  0  0  0  0  0  0  0  0  0  0
   25.3574    3.7054    2.5621 N   0  0  0  0  0  0  0  0  0  0  0  0
   28.0249    6.7382    8.5645 C   0  0  2  0  0  0  0  0  0  0  0  0
   28.2551    5.9167    9.7889 N   0  0  0  0  0  0  0  0  0  0  0  0
   26.5011    6.5005    8.1194 C   0  0  0  0  0  0  0  0  0  0  0  0
   26.1634    7.3544    6.8408 C   0  0  2  0  0  0  0  0  0  0  0  0
   24.7753    7.1296    6.4110 N   0  0  0  0  0  0  0  0  0  0  0  0
   27.0978    6.9664    5.6775 C   0  0  2  0  0  0  0  0  0  0  0  0
   28.6106    7.1853    6.0855 C   0  0  2  0  0  0  0  0  0  0  0  0
   29.4165    6.7957    4.9115 O   0  0  0  0  0  0  0  0  0  0  0  0
   28.9483    6.2509    7.3561 C   0  0  1  0  0  0  0  0  0  0  0  0
   30.2843    6.4517    7.6943 O   0  0  0  0  0  0  0  0  0  0  0  0
   30.4756    7.3823    4.4677 C   0  0  1  0  0  0  0  0  0  0  0  0
   31.6512    7.5106    5.4806 C   0  0  2  0  0  0  0  0  0  0  0  0
   31.5153    8.7243    6.1501 O   0  0  0  0  0  0  0  0  0  0  0  0
   32.7662    7.5421    4.5194 C   0  0  1  0  0  0  0  0  0  0  0  0
   32.4487    6.5323    3.3735 C   0  0  2  0  0  0  0  0  0  0  0  0
   31.0656    6.7690    3.2754 O   0  0  0  0  0  0  0  0  0  0  0  0
   32.9122    5.0841    3.5370 C   0  0  0  0  0  0  0  0  0  0  0  0
   34.3256    5.1245    3.5944 O   0  0  0  0  0  0  0  0  0  0  0  0
   33.8849    9.2663    3.1782 C   0  0  2  0  0  0  0  0  0  0  0  0
   32.8678    8.9565    4.0344 O   0  0  0  0  0  0  0  0  0  0  0  0
   33.8847   10.7193    2.8042 C   0  0  1  0  0  0  0  0  0  0  0  0
   35.0301    6.2950   -0.1114 N   0  0  0  0  0  0  0  0  0  0  0  0
   29.6658    5.1205   12.2942 O   0  0  0  0  0  0  0  0  0  0  0  0
   35.0502   10.9953    1.7768 C   0  0  2  0  0  0  0  0  0  0  0  0
   34.9709   10.1128    0.4831 C   0  0  1  0  0  0  0  0  0  0  0  0
   34.9825    8.7208    0.8676 C   0  0  1  0  0  0  0  0  0  0  0  0
   33.8700    8.4291    1.8568 O   0  0  0  0  0  0  0  0  0  0  0  0
   34.8590    7.7862   -0.4147 C   0  0  0  0  0  0  0  0  0  0  0  0
   32.6656   11.0578    2.1833 N   0  0  0  0  0  0  0  0  0  0  0  0
   24.5294    9.6097    1.7364 O   0  0  0  0  0  0  0  0  0  0  0  0
   28.0771    6.2578   13.4529 C   0  0  0  0  0  0  0  0  0  0  0  0
   33.9813   10.3427   -0.0511 O   0  0  0  0  0  0  0  0  0  0  0  0
   36.0478   10.7412    2.2902 O   0  0  0  0  0  0  0  0  0  0  0  0
   28.0391    6.5920   11.1103 C   0  0  0  0  0  0  0  0  0  0  0  0
   27.7758    5.3562   14.4490 C   0  0  0  0  0  0  0  0  0  0  0  0
   28.3143    5.5736   12.3345 C   0  0  1  0  0  0  0  0  0  0  0  0
   25.0918    7.3768    0.3953 F   0  0  0  0  0  0  0  0  0  0  0  0
  1  2  1  1  0  0  0
  1 10  1  0  0  0  0
  1  3  1  0  0  0  0
  3  4  1  1  0  0  0
  3  6  1  0  0  0  0
  5 46  2  0  0  0  0
  6 42  1  6  0  0  0
  6  8  1  0  0  0  0
  7 47  1  0  0  0  0
  8  9  1  0  0  0  0
  8 49  1  6  0  0  0
  9 10  1  0  0  0  0
  9 11  1  6  0  0  0
 11 12  1  0  0  0  0
 13 14  1  1  0  0  0
 13 15  1  0  0  0  0
 13 21  1  0  0  0  0
 14 46  1  0  0  0  0
 15 16  1  0  0  0  0
 16 17  1  6  0  0  0
 16 18  1  0  0  0  0
 18  2  1  6  0  0  0
 18 19  1  0  0  0  0
 19 20  1  6  0  0  0
 19 21  1  0  0  0  0
 21 22  1  1  0  0  0
 23 20  1  1  0  0  0
 23 24  1  0  0  0  0
 23 28  1  0  0  0  0
 24 25  1  6  0  0  0
 24 26  1  0  0  0  0
 26 27  1  0  0  0  0
 26 32  1  6  0  0  0
 27 28  1  0  0  0  0
 27 29  1  1  0  0  0
 29 30  1  0  0  0  0
 31 32  1  1  0  0  0
 31 33  1  0  0  0  0
 31 39  1  0  0  0  0
 33 36  1  0  0  0  0
 33 41  1  6  0  0  0
 34 40  1  0  0  0  0
 35 48  1  0  0  0  0
 36 37  1  0  0  0  0
 36 45  1  1  0  0  0
 37 38  1  0  0  0  0
 37 44  1  1  0  0  0
 38 39  1  0  0  0  0
 38 40  1  6  0  0  0
 43 47  1  0  0  0  0
 46 48  1  0  0  0  0
 48 43  1  1  0  0  0
M  END
>  <CHROM.1>
-175.74950749,-173.82020049,-173.26209433,-92.81214358,140.42098967,57.36659782
176.47647750,-63.01350152,-178.54606752,173.13817896,-60.04717921,-84.16110600
-120.00436508,29.64815501,7.46241019,4.92391547,0.97602458,-0.15002507,-1.36566746

>  <Name>
ligand

>  <RI>
0

>  <Rbt.Current_Directory>
/home/itssahil/PROJECTS/Mol_Feturizer/New_Systems/rnas/4PDQ

>  <Rbt.Executable>
rbdock ($Id: //depot/dev/client3/rdock/2013.1/src/exe/rbdock.cxx#4 $)

>  <Rbt.Library>
libRbt.so (2013.1, Build901 2013/11/27)

>  <Rbt.Parameter_File>
/export/apps/rDock/src/rDock_2013.1_src/data/scripts/dock_solv.prm

>  <Rbt.Receptor>
prm/pocket_docking_6.prm

>  <SCORE>
-14.2156

>  <SCORE.INTER>
-2.69114

>  <SCORE.INTER.CONST>
1

>  <SCORE.INTER.POLAR>
0

>  <SCORE.INTER.ROT>
13

>  <SCORE.INTER.SOLV>
14.6066

>  <SCORE.INTER.VDW>
-18.9296

>  <SCORE.INTER.norm>
-0.0549213

>  <SCORE.INTRA>
-11.5245

>  <SCORE.INTRA.DIHEDRAL>
-25.061

>  <SCORE.INTRA.DIHEDRAL.0>
34.5115

>  <SCORE.INTRA.POLAR>
0

>  <SCORE.INTRA.POLAR.0>
0

>  <SCORE.INTRA.REPUL>
0.00208511

>  <SCORE.INTRA.REPUL.0>
0

>  <SCORE.INTRA.SOLV>
-3.52459

>  <SCORE.INTRA.SOLV.lig_0>
-122.812

>  <SCORE.INTRA.VDW>
2.75788

>  <SCORE.INTRA.VDW.0>
-7.46208

>  <SCORE.INTRA.norm>
-0.235193

>  <SCORE.RESTR>
0

>  <SCORE.RESTR.CAVITY>
0

>  <SCORE.RESTR.norm>
0

>  <SCORE.SYSTEM>
0

>  <SCORE.SYSTEM.CONST>
0

>  <SCORE.SYSTEM.DIHEDRAL>
0

>  <SCORE.SYSTEM.SOLV>
0

>  <SCORE.SYSTEM.norm>
0

>  <SCORE.heavy>
49

>  <SCORE.norm>
-0.290115

>  <RMSD>
9.772

$$$$
ligand
 OpenBabel11021811513D
libRbt.so/2013.1/901 2013/11/27
 49 52  0  0  0  0  0  0  0  0999 V2000
   28.3289    9.1131    7.4237 C   0  0  2  0  0  0  0  0  0  0  0  0
   27.1747    8.8527    6.6806 O   0  0  0  0  0  0  0  0  0  0  0  0
   28.4633    8.0573    8.5831 C   0  0  2  0  0  0  0  0  0  0  0  0
   28.5238    6.6618    7.9819 N   0  0  0  0  0  0  0  0  0  0  0  0
   24.1393    7.6842    0.6377 O   0  0  0  0  0  0  0  0  0  0  0  0
   27.2849    8.1938    9.5753 C   0  0  2  0  0  0  0  0  0  0  0  0
   23.5126   11.5124   -3.1041 N   0  0  0  0  0  0  0  0  0  0  0  0
   27.2326    9.6165   10.1538 C   0  0  2  0  0  0  0  0  0  0  0  0
   27.0988   10.7111    9.0121 C   0  0  2  0  0  0  0  0  0  0  0  0
   28.2520   10.5035    8.0285 O   0  0  0  0  0  0  0  0  0  0  0  0
   27.1025   12.1514    9.6012 C   0  0  0  0  0  0  0  0  0  0  0  0
   27.3565   12.1995   10.9967 N   0  0  0  0  0  0  0  0  0  0  0  0
   25.5005    9.2257    2.6981 C   0  0  2  0  0  0  0  0  0  0  0  0
   24.8449    9.8472    1.5103 N   0  0  0  0  0  0  0  0  0  0  0  0
   24.6433    9.6548    3.9855 C   0  0  0  0  0  0  0  0  0  0  0  0
   25.2548    9.0182    5.2890 C   0  0  2  0  0  0  0  0  0  0  0  0
   24.4898    9.4205    6.4784 N   0  0  0  0  0  0  0  0  0  0  0  0
   26.7141    9.4797    5.4747 C   0  0  2  0  0  0  0  0  0  0  0  0
   27.5871    9.0753    4.2187 C   0  0  2  0  0  0  0  0  0  0  0  0
   28.9568    9.5511    4.4962 O   0  0  0  0  0  0  0  0  0  0  0  0
   26.9788    9.7924    2.9084 C   0  0  1  0  0  0  0  0  0  0  0  0
   27.7645    9.4309    1.8167 O   0  0  0  0  0  0  0  0  0  0  0  0
   29.7842   10.0692    3.6536 C   0  0  1  0  0  0  0  0  0  0  0  0
   29.5321   11.5622    3.2906 C   0  0  2  0  0  0  0  0  0  0  0  0
   28.6989   11.6019    2.1752 O   0  0  0  0  0  0  0  0  0  0  0  0
   30.9137   11.9413    2.9506 C   0  0  1  0  0  0  0  0  0  0  0  0
   31.8734   11.2337    3.9564 C   0  0  2  0  0  0  0  0  0  0  0  0
   31.1916   10.0073    4.0549 O   0  0  0  0  0  0  0  0  0  0  0  0
   32.2214   11.9600    5.2565 C   0  0  0  0  0  0  0  0  0  0  0  0
   32.0200   11.0245    6.2991 O   0  0  0  0  0  0  0  0  0  0  0  0
   32.4212   11.4493    1.0774 C   0  0  2  0  0  0  0  0  0  0  0  0
   31.1358   11.5068    1.5335 O   0  0  0  0  0  0  0  0  0  0  0  0
   32.4859   11.3783   -0.4199 C   0  0  1  0  0  0  0  0  0  0  0  0
   34.5990    7.5785    1.7520 N   0  0  0  0  0  0  0  0  0  0  0  0
   23.5367   11.1355   -0.4002 O   0  0  0  0  0  0  0  0  0  0  0  0
   33.9928   11.2627   -0.8736 C   0  0  2  0  0  0  0  0  0  0  0  0
   34.7458   10.0369   -0.2497 C   0  0  1  0  0  0  0  0  0  0  0  0
   34.6783   10.1326    1.1897 C   0  0  1  0  0  0  0  0  0  0  0  0
   33.2380   10.2453    1.6521 O   0  0  0  0  0  0  0  0  0  0  0  0
   35.3939    8.8824    1.8665 C   0  0  0  0  0  0  0  0  0  0  0  0
   31.8024   10.2344   -0.8789 N   0  0  0  0  0  0  0  0  0  0  0  0
   27.4267    7.4457   10.4278 O   0  0  0  0  0  0  0  0  0  0  0  0
   24.2404    9.4643   -1.7683 C   0  0  0  0  0  0  0  0  0  0  0  0
   34.2125    9.0770   -0.5839 O   0  0  0  0  0  0  0  0  0  0  0  0
   34.5468   12.2066   -0.5195 O   0  0  0  0  0  0  0  0  0  0  0  0
   24.1876    8.9181    0.5337 C   0  0  0  0  0  0  0  0  0  0  0  0
   23.6809   10.1293   -2.8364 C   0  0  0  0  0  0  0  0  0  0  0  0
   23.5146    9.7385   -0.6851 C   0  0  1  0  0  0  0  0  0  0  0  0
   28.4075    9.8819   10.8795 F   0  0  0  0  0  0  0  0  0  0  0  0
  1  2  1  1  0  0  0
  1 10  1  0  0  0  0
  1  3  1  0  0  0  0
  3  4  1  6  0  0  0
  3  6  1  0  0  0  0
  5 46  2  0  0  0  0
  6 42  1  1  0  0  0
  6  8  1  0  0  0  0
  7 47  1  0  0  0  0
  8  9  1  0  0  0  0
  8 49  1  6  0  0  0
  9 10  1  0  0  0  0
  9 11  1  1  0  0  0
 11 12  1  0  0  0  0
 13 14  1  6  0  0  0
 13 15  1  0  0  0  0
 13 21  1  0  0  0  0
 14 46  1  0  0  0  0
 15 16  1  0  0  0  0
 16 17  1  1  0  0  0
 16 18  1  0  0  0  0
 18  2  1  1  0  0  0
 18 19  1  0  0  0  0
 19 20  1  1  0  0  0
 19 21  1  0  0  0  0
 21 22  1  6  0  0  0
 23 20  1  1  0  0  0
 23 24  1  0  0  0  0
 23 28  1  0  0  0  0
 24 25  1  6  0  0  0
 24 26  1  0  0  0  0
 26 27  1  0  0  0  0
 26 32  1  6  0  0  0
 27 28  1  0  0  0  0
 27 29  1  1  0  0  0
 29 30  1  0  0  0  0
 31 32  1  6  0  0  0
 31 33  1  0  0  0  0
 31 39  1  0  0  0  0
 33 36  1  0  0  0  0
 33 41  1  1  0  0  0
 34 40  1  0  0  0  0
 35 48  1  0  0  0  0
 36 37  1  0  0  0  0
 36 45  1  1  0  0  0
 37 38  1  0  0  0  0
 37 44  1  6  0  0  0
 38 39  1  0  0  0  0
 38 40  1  1  0  0  0
 43 47  1  0  0  0  0
 46 48  1  0  0  0  0
 48 43  1  6  0  0  0
M  END
>  <CHROM.1>
-174.15184134,-167.55713690,5.96881987,-112.15015002,-141.66966109,78.29167238
-164.64691935,130.99878127,-164.13320251,-73.15278738,63.38608936,-61.64060763
169.79148188,28.83409793,9.99868614,3.66645897,-2.04692493,-0.08155092,-1.50628956

>  <Name>
ligand

>  <RI>
0

>  <Rbt.Current_Directory>
/home/itssahil/PROJECTS/Mol_Feturizer/New_Systems/rnas/4PDQ

>  <Rbt.Executable>
rbdock ($Id: //depot/dev/client3/rdock/2013.1/src/exe/rbdock.cxx#4 $)

>  <Rbt.Library>
libRbt.so (2013.1, Build901 2013/11/27)

>  <Rbt.Parameter_File>
/export/apps/rDock/src/rDock_2013.1_src/data/scripts/dock_solv.prm

>  <Rbt.Receptor>
prm/pocket_docking_2.prm

>  <SCORE>
7.66925

>  <SCORE.INTER>
-0.411641

>  <SCORE.INTER.CONST>
1

>  <SCORE.INTER.POLAR>
0

>  <SCORE.INTER.ROT>
13

>  <SCORE.INTER.SOLV>
18.1984

>  <SCORE.INTER.VDW>
-18.6072

>  <SCORE.INTER.norm>
-0.00840084

>  <SCORE.INTRA>
2.38137

>  <SCORE.INTRA.DIHEDRAL>
-10.4855

>  <SCORE.INTRA.DIHEDRAL.0>
34.5115

>  <SCORE.INTRA.POLAR>
0

>  <SCORE.INTRA.POLAR.0>
0

>  <SCORE.INTRA.REPUL>
0.00628872

>  <SCORE.INTRA.REPUL.0>
0

>  <SCORE.INTRA.SOLV>
0.981331

>  <SCORE.INTRA.SOLV.lig_0>
-122.812

>  <SCORE.INTRA.VDW>
7.10202

>  <SCORE.INTRA.VDW.0>
-7.46208

>  <SCORE.INTRA.norm>
0.0485995

>  <SCORE.RESTR>
5.69952

>  <SCORE.RESTR.CAVITY>
5.69952

>  <SCORE.RESTR.norm>
0.116317

>  <SCORE.SYSTEM>
0

>  <SCORE.SYSTEM.CONST>
0

>  <SCORE.SYSTEM.DIHEDRAL>
0

>  <SCORE.SYSTEM.SOLV>
0

>  <SCORE.SYSTEM.norm>
0

>  <SCORE.heavy>
49

>  <SCORE.norm>
0.156515

>  <RMSD>
9.774

$$$$
ligand
 OpenBabel11021811513D
libRbt.so/2013.1/901 2013/11/27
 49 52  0  0  0  0  0  0  0  0999 V2000
   28.1767    8.2577    6.5924 C   0  0  2  0  0  0  0  0  0  0  0  0
   26.9427    7.9401    6.0194 O   0  0  0  0  0  0  0  0  0  0  0  0
   28.3464    7.4821    7.9514 C   0  0  2  0  0  0  0  0  0  0  0  0
   28.2537    5.9875    7.6873 N   0  0  0  0  0  0  0  0  0  0  0  0
   26.2940    7.9616   -0.7619 O   0  0  0  0  0  0  0  0  0  0  0  0
   27.2786    7.9423    8.9712 C   0  0  2  0  0  0  0  0  0  0  0  0
   22.1643   10.5220   -3.2519 N   0  0  0  0  0  0  0  0  0  0  0  0
   27.3791    9.4576    9.2063 C   0  0  2  0  0  0  0  0  0  0  0  0
   27.2144   10.2746    7.8554 C   0  0  2  0  0  0  0  0  0  0  0  0
   28.2530    9.7496    6.8624 O   0  0  0  0  0  0  0  0  0  0  0  0
   27.3727   11.8044    8.0926 C   0  0  0  0  0  0  0  0  0  0  0  0
   28.6411   12.1763    8.6093 N   0  0  0  0  0  0  0  0  0  0  0  0
   25.3535    8.1160    1.9888 C   0  0  2  0  0  0  0  0  0  0  0  0
   24.5514    8.5879    0.8221 N   0  0  0  0  0  0  0  0  0  0  0  0
   24.3652    8.0775    3.2530 C   0  0  0  0  0  0  0  0  0  0  0  0
   25.1284    7.5638    4.5305 C   0  0  2  0  0  0  0  0  0  0  0  0
   24.2384    7.5432    5.7008 N   0  0  0  0  0  0  0  0  0  0  0  0
   26.3212    8.4877    4.8474 C   0  0  2  0  0  0  0  0  0  0  0  0
   27.3145    8.5515    3.6177 C   0  0  2  0  0  0  0  0  0  0  0  0
   28.4162    9.4475    4.0214 O   0  0  0  0  0  0  0  0  0  0  0  0
   26.5258    9.1419    2.3406 C   0  0  1  0  0  0  0  0  0  0  0  0
   27.4179    9.1974    1.2726 O   0  0  0  0  0  0  0  0  0  0  0  0
   29.4288    9.8034    3.3069 C   0  0  1  0  0  0  0  0  0  0  0  0
   30.1867   11.0731    3.7948 C   0  0  2  0  0  0  0  0  0  0  0  0
   29.6224   12.1816    3.1681 O   0  0  0  0  0  0  0  0  0  0  0  0
   31.5169   10.7581    3.2475 C   0  0  1  0  0  0  0  0  0  0  0  0
   31.7672    9.2290    3.4283 C   0  0  2  0  0  0  0  0  0  0  0  0
   30.4638    8.7785    3.1515 O   0  0  0  0  0  0  0  0  0  0  0  0
   32.4238    8.7523    4.7247 C   0  0  0  0  0  0  0  0  0  0  0  0
   33.5738    9.5568    4.9056 O   0  0  0  0  0  0  0  0  0  0  0  0
   32.6688   11.1477    1.1157 C   0  0  2  0  0  0  0  0  0  0  0  0
   31.4928   11.1756    1.8083 O   0  0  0  0  0  0  0  0  0  0  0  0
   32.4973   11.5966   -0.3057 C   0  0  1  0  0  0  0  0  0  0  0  0
   36.7500    8.0846    0.0748 N   0  0  0  0  0  0  0  0  0  0  0  0
   23.0904    8.0846   -1.8509 O   0  0  0  0  0  0  0  0  0  0  0  0
   33.8802   11.4908   -1.0583 C   0  0  2  0  0  0  0  0  0  0  0  0
   34.5059   10.0533   -1.0261 C   0  0  1  0  0  0  0  0  0  0  0  0
   34.6701    9.6478    0.3502 C   0  0  1  0  0  0  0  0  0  0  0  0
   33.3530    9.7410    1.0970 O   0  0  0  0  0  0  0  0  0  0  0  0
   35.2633    8.1731    0.4308 C   0  0  0  0  0  0  0  0  0  0  0  0
   31.5745   10.7619   -0.9675 N   0  0  0  0  0  0  0  0  0  0  0  0
   27.4479    7.3957    9.9606 O   0  0  0  0  0  0  0  0  0  0  0  0
   23.7571   10.1820   -1.2884 C   0  0  0  0  0  0  0  0  0  0  0  0
   33.7784    9.3308   -1.5422 O   0  0  0  0  0  0  0  0  0  0  0  0
   34.6282   12.1892   -0.5330 O   0  0  0  0  0  0  0  0  0  0  0  0
   25.1758    8.4445   -0.5338 C   0  0  0  0  0  0  0  0  0  0  0  0
   23.2394   10.8389   -2.3821 C   0  0  0  0  0  0  0  0  0  0  0  0
   24.1841    8.9853   -1.6895 C   0  0  1  0  0  0  0  0  0  0  0  0
   28.6325    9.7743    9.7597 F   0  0  0  0  0  0  0  0  0  0  0  0
  1  2  1  1  0  0  0
  1 10  1  0  0  0  0
  1  3  1  0  0  0  0
  3  4  1  6  0  0  0
  3  6  1  0  0  0  0
  5 46  2  0  0  0  0
  6 42  1  1  0  0  0
  6  8  1  0  0  0  0
  7 47  1  0  0  0  0
  8  9  1  0  0  0  0
  8 49  1  6  0  0  0
  9 10  1  0  0  0  0
  9 11  1  1  0  0  0
 11 12  1  0  0  0  0
 13 14  1  6  0  0  0
 13 15  1  0  0  0  0
 13 21  1  0  0  0  0
 14 46  1  0  0  0  0
 15 16  1  0  0  0  0
 16 17  1  1  0  0  0
 16 18  1  0  0  0  0
 18  2  1  1  0  0  0
 18 19  1  0  0  0  0
 19 20  1  1  0  0  0
 19 21  1  0  0  0  0
 21 22  1  6  0  0  0
 23 20  1  1  0  0  0
 23 24  1  0  0  0  0
 23 28  1  0  0  0  0
 24 25  1  6  0  0  0
 24 26  1  0  0  0  0
 26 27  1  0  0  0  0
 26 32  1  6  0  0  0
 27 28  1  0  0  0  0
 27 29  1  1  0  0  0
 29 30  1  0  0  0  0
 31 32  1  6  0  0  0
 31 33  1  0  0  0  0
 31 39  1  0  0  0  0
 33 36  1  0  0  0  0
 33 41  1  6  0  0  0
 34 40  1  0  0  0  0
 35 48  1  0  0  0  0
 36 37  1  0  0  0  0
 36 45  1  1  0  0  0
 37 38  1  0  0  0  0
 37 44  1  6  0  0  0
 38 39  1  0  0  0  0
 38 40  1  6  0  0  0
 43 47  1  0  0  0  0
 46 48  1  0  0  0  0
 48 43  1  1  0  0  0
M  END
>  <CHROM.1>
174.40533150,168.35502529,60.79052943,-167.92813083,-178.28928163,161.60143737
171.70078439,-49.94305201,-179.68529571,73.97415747,60.59242573,-77.84384778
107.61270684,28.91702577,9.42527179,3.04040663,-2.38758327,-0.12718840,-1.48396533

>  <Name>
ligand

>  <RI>
0

>  <Rbt.Current_Directory>
/home/itssahil/PROJECTS/Mol_Feturizer/New_Systems/rnas/4PDQ

>  <Rbt.Executable>
rbdock ($Id: //depot/dev/client3/rdock/2013.1/src/exe/rbdock.cxx#4 $)

>  <Rbt.Library>
libRbt.so (2013.1, Build901 2013/11/27)

>  <Rbt.Parameter_File>
/export/apps/rDock/src/rDock_2013.1_src/data/scripts/dock_solv.prm

>  <Rbt.Receptor>
prm/pocket_docking_4.prm

>  <SCORE>
-14.4571

>  <SCORE.INTER>
-1.93134

>  <SCORE.INTER.CONST>
1

>  <SCORE.INTER.POLAR>
0

>  <SCORE.INTER.ROT>
13

>  <SCORE.INTER.SOLV>
16.1542

>  <SCORE.INTER.VDW>
-18.939

>  <SCORE.INTER.norm>
-0.039415

>  <SCORE.INTRA>
-12.5258

>  <SCORE.INTRA.DIHEDRAL>
-28.5972

>  <SCORE.INTRA.DIHEDRAL.0>
34.5115

>  <SCORE.INTRA.POLAR>
0

>  <SCORE.INTRA.POLAR.0>
0

>  <SCORE.INTRA.REPUL>
0

>  <SCORE.INTRA.REPUL.0>
0

>  <SCORE.INTRA.SOLV>
-1.71292

>  <SCORE.INTRA.SOLV.lig_0>
-122.812

>  <SCORE.INTRA.VDW>
2.62925

>  <SCORE.INTRA.VDW.0>
-7.46208

>  <SCORE.INTRA.norm>
-0.255629

>  <SCORE.RESTR>
0

>  <SCORE.RESTR.CAVITY>
0

>  <SCORE.RESTR.norm>
0

>  <SCORE.SYSTEM>
0

>  <SCORE.SYSTEM.CONST>
0

>  <SCORE.SYSTEM.DIHEDRAL>
0

>  <SCORE.SYSTEM.SOLV>
0

>  <SCORE.SYSTEM.norm>
0

>  <SCORE.heavy>
49

>  <SCORE.norm>
-0.295044

>  <RMSD>
9.810

$$$$
ligand
 OpenBabel11021811513D
libRbt.so/2013.1/901 2013/11/27
 49 52  0  0  0  0  0  0  0  0999 V2000
   26.4418    7.2141    7.0636 C   0  0  2  0  0  0  0  0  0  0  0  0
   25.8089    8.3837    7.4920 O   0  0  0  0  0  0  0  0  0  0  0  0
   25.3904    6.0470    6.9651 C   0  0  2  0  0  0  0  0  0  0  0  0
   24.2944    6.4446    5.9888 N   0  0  0  0  0  0  0  0  0  0  0  0
   25.9220   14.7078    4.8404 O   0  0  0  0  0  0  0  0  0  0  0  0
   24.8115    5.7241    8.3625 C   0  0  2  0  0  0  0  0  0  0  0  0
   24.4494   17.0144    9.0174 N   0  0  0  0  0  0  0  0  0  0  0  0
   25.9387    5.3449    9.3357 C   0  0  2  0  0  0  0  0  0  0  0  0
   27.0214    6.4990    9.4600 C   0  0  2  0  0  0  0  0  0  0  0  0
   27.5251    6.8206    8.0517 O   0  0  0  0  0  0  0  0  0  0  0  0
   28.1878    6.0859   10.4037 C   0  0  0  0  0  0  0  0  0  0  0  0
   27.7857    5.8548   11.7449 N   0  0  0  0  0  0  0  0  0  0  0  0
   26.0434   12.6758    6.9215 C   0  0  2  0  0  0  0  0  0  0  0  0
   26.4546   14.0940    7.1377 N   0  0  0  0  0  0  0  0  0  0  0  0
   25.6927   12.0637    8.3633 C   0  0  0  0  0  0  0  0  0  0  0  0
   25.2227   10.5676    8.2247 C   0  0  2  0  0  0  0  0  0  0  0  0
   24.9178    9.9891    9.5416 N   0  0  0  0  0  0  0  0  0  0  0  0
   26.3301    9.7186    7.5691 C   0  0  2  0  0  0  0  0  0  0  0  0
   26.7032   10.2986    6.1453 C   0  0  2  0  0  0  0  0  0  0  0  0
   27.7572    9.4186    5.6030 O   0  0  0  0  0  0  0  0  0  0  0  0
   27.2429   11.8082    6.3224 C   0  0  1  0  0  0  0  0  0  0  0  0
   27.5729   12.2974    5.0609 O   0  0  0  0  0  0  0  0  0  0  0  0
   27.8120    8.9120    4.4184 C   0  0  1  0  0  0  0  0  0  0  0  0
   28.2602    9.8847    3.2881 C   0  0  2  0  0  0  0  0  0  0  0  0
   27.1208   10.4798    2.7521 O   0  0  0  0  0  0  0  0  0  0  0  0
   28.8417    8.8953    2.3655 C   0  0  1  0  0  0  0  0  0  0  0  0
   29.5941    7.8236    3.2133 C   0  0  2  0  0  0  0  0  0  0  0  0
   28.6889    7.7460    4.2872 O   0  0  0  0  0  0  0  0  0  0  0  0
   31.0679    8.0659    3.5420 C   0  0  0  0  0  0  0  0  0  0  0  0
   31.4972    6.9431    4.2888 O   0  0  0  0  0  0  0  0  0  0  0  0
   27.9602    7.2772    0.7444 C   0  0  2  0  0  0  0  0  0  0  0  0
   27.6985    8.3200    1.5856 O   0  0  0  0  0  0  0  0  0  0  0  0
   26.8549    7.0607   -0.2468 C   0  0  1  0  0  0  0  0  0  0  0  0
   29.9726    3.5535    2.4375 N   0  0  0  0  0  0  0  0  0  0  0  0
   27.3340   17.1780    5.2110 O   0  0  0  0  0  0  0  0  0  0  0  0
   27.1989    5.8132   -1.1499 C   0  0  2  0  0  0  0  0  0  0  0  0
   27.4489    4.4966   -0.3358 C   0  0  1  0  0  0  0  0  0  0  0  0
   28.5218    4.7265    0.6032 C   0  0  1  0  0  0  0  0  0  0  0  0
   28.2153    5.9226    1.4843 O   0  0  0  0  0  0  0  0  0  0  0  0
   28.7812    3.4265    1.4838 C   0  0  0  0  0  0  0  0  0  0  0  0
   25.6471    6.7920    0.4280 N   0  0  0  0  0  0  0  0  0  0  0  0
   24.0827    4.8484    8.2709 O   0  0  0  0  0  0  0  0  0  0  0  0
   25.7199   17.1443    6.8090 C   0  0  0  0  0  0  0  0  0  0  0  0
   26.4926    4.2449    0.2469 O   0  0  0  0  0  0  0  0  0  0  0  0
   28.1725    6.0406   -1.7188 O   0  0  0  0  0  0  0  0  0  0  0  0
   26.3374   15.0213    5.9650 C   0  0  0  0  0  0  0  0  0  0  0  0
   25.5087   16.7504    8.1114 C   0  0  0  0  0  0  0  0  0  0  0  0
   26.8058   16.5170    6.3588 C   0  0  1  0  0  0  0  0  0  0  0  0
   26.5882    4.1815    8.8863 F   0  0  0  0  0  0  0  0  0  0  0  0
  1  2  1  1  0  0  0
  1 10  1  0  0  0  0
  1  3  1  0  0  0  0
  3  4  1  6  0  0  0
  3  6  1  0  0  0  0
  5 46  2  0  0  0  0
  6 42  1  6  0  0  0
  6  8  1  0  0  0  0
  7 47  1  0  0  0  0
  8  9  1  0  0  0  0
  8 49  1  6  0  0  0
  9 10  1  0  0  0  0
  9 11  1  1  0  0  0
 11 12  1  0  0  0  0
 13 14  1  1  0  0  0
 13 15  1  0  0  0  0
 13 21  1  0  0  0  0
 14 46  1  0  0  0  0
 15 16  1  0  0  0  0
 16 17  1  1  0  0  0
 16 18  1  0  0  0  0
 18  2  1  6  0  0  0
 18 19  1  0  0  0  0
 19 20  1  1  0  0  0
 19 21  1  0  0  0  0
 21 22  1  6  0  0  0
 23 20  1  1  0  0  0
 23 24  1  0  0  0  0
 23 28  1  0  0  0  0
 24 25  1  6  0  0  0
 24 26  1  0  0  0  0
 26 27  1  0  0  0  0
 26 32  1  1  0  0  0
 27 28  1  0  0  0  0
 27 29  1  1  0  0  0
 29 30  1  0  0  0  0
 31 32  1  1  0  0  0
 31 33  1  0  0  0  0
 31 39  1  0  0  0  0
 33 36  1  0  0  0  0
 33 41  1  1  0  0  0
 34 40  1  0  0  0  0
 35 48  1  0  0  0  0
 36 37  1  0  0  0  0
 36 45  1  1  0  0  0
 37 38  1  0  0  0  0
 37 44  1  1  0  0  0
 38 39  1  0  0  0  0
 38 40  1  1  0  0  0
 43 47  1  0  0  0  0
 46 48  1  0  0  0  0
 48 43  1  6  0  0  0
M  END
>  <CHROM.1>
-171.71955700,-175.29555020,-63.08368871,-157.68078768,133.12441748,77.04779253
-173.77385818,-179.01840177,-163.48803953,175.82749864,-173.86431042,-161.07075703
-30.25955329,27.07021953,8.88143845,5.15517973,0.70274561,-1.33533018,2.84303573

>  <Name>
ligand

>  <RI>
0

>  <Rbt.Current_Directory>
/home/itssahil/PROJECTS/Mol_Feturizer/New_Systems/rnas/4PDQ

>  <Rbt.Executable>
rbdock ($Id: //depot/dev/client3/rdock/2013.1/src/exe/rbdock.cxx#4 $)

>  <Rbt.Library>
libRbt.so (2013.1, Build901 2013/11/27)

>  <Rbt.Parameter_File>
/export/apps/rDock/src/rDock_2013.1_src/data/scripts/dock_solv.prm

>  <Rbt.Receptor>
prm/pocket_docking_7.prm

>  <SCORE>
-5.703

>  <SCORE.INTER>
5.22377

>  <SCORE.INTER.CONST>
1

>  <SCORE.INTER.POLAR>
0

>  <SCORE.INTER.ROT>
13

>  <SCORE.INTER.SOLV>
14.3238

>  <SCORE.INTER.VDW>
-13.5588

>  <SCORE.INTER.norm>
0.106608

>  <SCORE.INTRA>
-10.9268

>  <SCORE.INTRA.DIHEDRAL>
-21.4435

>  <SCORE.INTRA.DIHEDRAL.0>
34.5115

>  <SCORE.INTRA.POLAR>
0

>  <SCORE.INTRA.POLAR.0>
0

>  <SCORE.INTRA.REPUL>
0.00310635

>  <SCORE.INTRA.REPUL.0>
0

>  <SCORE.INTRA.SOLV>
-3.47578

>  <SCORE.INTRA.SOLV.lig_0>
-122.812

>  <SCORE.INTRA.VDW>
1.51733

>  <SCORE.INTRA.VDW.0>
-7.46208

>  <SCORE.INTRA.norm>
-0.222995

>  <SCORE.RESTR>
0

>  <SCORE.RESTR.CAVITY>
0

>  <SCORE.RESTR.norm>
0

>  <SCORE.SYSTEM>
0

>  <SCORE.SYSTEM.CONST>
0

>  <SCORE.SYSTEM.DIHEDRAL>
0

>  <SCORE.SYSTEM.SOLV>
0

>  <SCORE.SYSTEM.norm>
0

>  <SCORE.heavy>
49

>  <SCORE.norm>
-0.116388

>  <RMSD>
9.831

$$$$
ligand
 OpenBabel11021811513D
libRbt.so/2013.1/901 2013/11/27
 49 52  0  0  0  0  0  0  0  0999 V2000
   28.8341   10.1419    6.4554 C   0  0  2  0  0  0  0  0  0  0  0  0
   28.4631    9.6483    5.2022 O   0  0  0  0  0  0  0  0  0  0  0  0
   29.6797    9.0592    7.2235 C   0  0  2  0  0  0  0  0  0  0  0  0
   30.9130    8.7157    6.4029 N   0  0  0  0  0  0  0  0  0  0  0  0
   24.3064   10.0324   -0.2825 O   0  0  0  0  0  0  0  0  0  0  0  0
   28.8207    7.8040    7.5036 C   0  0  2  0  0  0  0  0  0  0  0  0
   24.4201   14.0799   -3.8625 N   0  0  0  0  0  0  0  0  0  0  0  0
   27.5715    8.1791    8.3161 C   0  0  2  0  0  0  0  0  0  0  0  0
   26.6929    9.2724    7.5728 C   0  0  2  0  0  0  0  0  0  0  0  0
   27.5954   10.4698    7.2696 O   0  0  0  0  0  0  0  0  0  0  0  0
   25.4597    9.6879    8.4263 C   0  0  0  0  0  0  0  0  0  0  0  0
   24.5711    8.6180    8.7087 N   0  0  0  0  0  0  0  0  0  0  0  0
   26.1584   10.9500    1.7676 C   0  0  2  0  0  0  0  0  0  0  0  0
   25.7010   11.8076    0.6351 N   0  0  0  0  0  0  0  0  0  0  0  0
   26.3335   11.9097    3.0422 C   0  0  0  0  0  0  0  0  0  0  0  0
   26.7934   11.0774    4.2968 C   0  0  2  0  0  0  0  0  0  0  0  0
   26.9769   11.9490    5.4666 N   0  0  0  0  0  0  0  0  0  0  0  0
   28.1324   10.3703    4.0068 C   0  0  2  0  0  0  0  0  0  0  0  0
   27.9953    9.4179    2.7509 C   0  0  2  0  0  0  0  0  0  0  0  0
   29.3172    8.7880    2.5629 O   0  0  0  0  0  0  0  0  0  0  0  0
   27.5877   10.3042    1.4665 C   0  0  1  0  0  0  0  0  0  0  0  0
   27.4799    9.4502    0.3717 O   0  0  0  0  0  0  0  0  0  0  0  0
   30.3745    9.3353    2.0675 C   0  0  1  0  0  0  0  0  0  0  0  0
   30.7553   10.7250    2.6577 C   0  0  2  0  0  0  0  0  0  0  0  0
   30.1408   11.7068    1.8842 O   0  0  0  0  0  0  0  0  0  0  0  0
   32.2072   10.6742    2.4183 C   0  0  1  0  0  0  0  0  0  0  0  0
   32.6967    9.2212    2.7054 C   0  0  2  0  0  0  0  0  0  0  0  0
   31.5930    8.5294    2.1745 O   0  0  0  0  0  0  0  0  0  0  0  0
   33.1355    8.8741    4.1287 C   0  0  0  0  0  0  0  0  0  0  0  0
   33.9606    9.9398    4.5600 O   0  0  0  0  0  0  0  0  0  0  0  0
   33.6937   11.3348    0.5805 C   0  0  2  0  0  0  0  0  0  0  0  0
   32.4163   11.0856    0.9923 O   0  0  0  0  0  0  0  0  0  0  0  0
   33.7372   11.9232   -0.7990 C   0  0  1  0  0  0  0  0  0  0  0  0
   36.8898    8.2966    1.6342 N   0  0  0  0  0  0  0  0  0  0  0  0
   24.3442   13.5668   -0.9721 O   0  0  0  0  0  0  0  0  0  0  0  0
   35.2402   12.1371   -1.2294 C   0  0  2  0  0  0  0  0  0  0  0  0
   36.1009   10.8273   -1.1823 C   0  0  1  0  0  0  0  0  0  0  0  0
   36.0517   10.2858    0.1555 C   0  0  1  0  0  0  0  0  0  0  0  0
   34.6155   10.0709    0.5940 O   0  0  0  0  0  0  0  0  0  0  0  0
   36.8781    8.9282    0.2392 C   0  0  0  0  0  0  0  0  0  0  0  0
   33.1404   11.0389   -1.7200 N   0  0  0  0  0  0  0  0  0  0  0  0
   29.4433    7.0508    8.0965 O   0  0  0  0  0  0  0  0  0  0  0  0
   25.2446   12.1109   -2.4654 C   0  0  0  0  0  0  0  0  0  0  0  0
   35.6412   10.0664   -1.9085 O   0  0  0  0  0  0  0  0  0  0  0  0
   35.7222   12.8766   -0.4919 O   0  0  0  0  0  0  0  0  0  0  0  0
   24.7477   11.1888   -0.3432 C   0  0  0  0  0  0  0  0  0  0  0  0
   24.7558   12.7276   -3.5954 C   0  0  0  0  0  0  0  0  0  0  0  0
   24.3371   12.2416   -1.4985 C   0  0  1  0  0  0  0  0  0  0  0  0
   27.9515    8.6986    9.5663 F   0  0  0  0  0  0  0  0  0  0  0  0
  1  2  1  6  0  0  0
  1 10  1  0  0  0  0
  1  3  1  0  0  0  0
  3  4  1  6  0  0  0
  3  6  1  0  0  0  0
  5 46  2  0  0  0  0
  6 42  1  1  0  0  0
  6  8  1  0  0  0  0
  7 47  1  0  0  0  0
  8  9  1  0  0  0  0
  8 49  1  1  0  0  0
  9 10  1  0  0  0  0
  9 11  1  1  0  0  0
 11 12  1  0  0  0  0
 13 14  1  6  0  0  0
 13 15  1  0  0  0  0
 13 21  1  0  0  0  0
 14 46  1  0  0  0  0
 15 16  1  0  0  0  0
 16 17  1  1  0  0  0
 16 18  1  0  0  0  0
 18  2  1  1  0  0  0
 18 19  1  0  0  0  0
 19 20  1  6  0  0  0
 19 21  1  0  0  0  0
 21 22  1  6  0  0  0
 23 20  1  1  0  0  0
 23 24  1  0  0  0  0
 23 28  1  0  0  0  0
 24 25  1  6  0  0  0
 24 26  1  0  0  0  0
 26 27  1  0  0  0  0
 26 32  1  6  0  0  0
 27 28  1  0  0  0  0
 27 29  1  1  0  0  0
 29 30  1  0  0  0  0
 31 32  1  6  0  0  0
 31 33  1  0  0  0  0
 31 39  1  0  0  0  0
 33 36  1  0  0  0  0
 33 41  1  6  0  0  0
 34 40  1  0  0  0  0
 35 48  1  0  0  0  0
 36 37  1  0  0  0  0
 36 45  1  1  0  0  0
 37 38  1  0  0  0  0
 37 44  1  6  0  0  0
 38 39  1  0  0  0  0
 38 40  1  6  0  0  0
 43 47  1  0  0  0  0
 46 48  1  0  0  0  0
 48 43  1  6  0  0  0
M  END
>  <CHROM.1>
-155.27351541,-68.54051367,-60.93570721,-145.38219863,-75.61991548,49.09156587
169.36319059,-45.32235157,-171.76448951,179.28909844,62.82282676,-75.55467027
147.76005774,29.72087633,10.33456092,2.55528836,-2.53354574,0.13646075,-1.24044233

>  <Name>
ligand

>  <RI>
0

>  <Rbt.Current_Directory>
/home/itssahil/PROJECTS/Mol_Feturizer/New_Systems/rnas/4PDQ

>  <Rbt.Executable>
rbdock ($Id: //depot/dev/client3/rdock/2013.1/src/exe/rbdock.cxx#4 $)

>  <Rbt.Library>
libRbt.so (2013.1, Build901 2013/11/27)

>  <Rbt.Parameter_File>
/export/apps/rDock/src/rDock_2013.1_src/data/scripts/dock_solv.prm

>  <Rbt.Receptor>
prm/pocket_docking_4.prm

>  <SCORE>
-7.44464

>  <SCORE.INTER>
0.637968

>  <SCORE.INTER.CONST>
1

>  <SCORE.INTER.POLAR>
0

>  <SCORE.INTER.ROT>
13

>  <SCORE.INTER.SOLV>
16.7518

>  <SCORE.INTER.VDW>
-17.4253

>  <SCORE.INTER.norm>
0.0130198

>  <SCORE.INTRA>
-8.08261

>  <SCORE.INTRA.DIHEDRAL>
-25.0124

>  <SCORE.INTRA.DIHEDRAL.0>
34.5115

>  <SCORE.INTRA.POLAR>
0

>  <SCORE.INTRA.POLAR.0>
0

>  <SCORE.INTRA.REPUL>
0

>  <SCORE.INTRA.REPUL.0>
0

>  <SCORE.INTRA.SOLV>
2.53727

>  <SCORE.INTRA.SOLV.lig_0>
-122.812

>  <SCORE.INTRA.VDW>
3.15497

>  <SCORE.INTRA.VDW.0>
-7.46208

>  <SCORE.INTRA.norm>
-0.164951

>  <SCORE.RESTR>
0

>  <SCORE.RESTR.CAVITY>
0

>  <SCORE.RESTR.norm>
0

>  <SCORE.SYSTEM>
0

>  <SCORE.SYSTEM.CONST>
0

>  <SCORE.SYSTEM.DIHEDRAL>
0

>  <SCORE.SYSTEM.SOLV>
0

>  <SCORE.SYSTEM.norm>
0

>  <SCORE.heavy>
49

>  <SCORE.norm>
-0.151931

>  <RMSD>
9.845

$$$$
ligand
 OpenBabel11021811513D
libRbt.so/2013.1/901 2013/11/27
 49 52  0  0  0  0  0  0  0  0999 V2000
   29.1973    9.0447    6.2840 C   0  0  2  0  0  0  0  0  0  0  0  0
   28.0814    9.6359    5.6863 O   0  0  0  0  0  0  0  0  0  0  0  0
   28.9692    8.9295    7.8370 C   0  0  2  0  0  0  0  0  0  0  0  0
   27.7244    8.0957    8.0974 N   0  0  0  0  0  0  0  0  0  0  0  0
   23.6908    8.0858    0.6228 O   0  0  0  0  0  0  0  0  0  0  0  0
   28.8489   10.3357    8.4696 C   0  0  2  0  0  0  0  0  0  0  0  0
   25.2567   12.0464   -2.1063 N   0  0  0  0  0  0  0  0  0  0  0  0
   30.1088   11.1654    8.1763 C   0  0  2  0  0  0  0  0  0  0  0  0
   30.3731   11.3022    6.6171 C   0  0  2  0  0  0  0  0  0  0  0  0
   30.4309    9.8917    6.0277 O   0  0  0  0  0  0  0  0  0  0  0  0
   31.6802   12.0959    6.3290 C   0  0  0  0  0  0  0  0  0  0  0  0
   31.9583   12.2606    4.9471 N   0  0  0  0  0  0  0  0  0  0  0  0
   26.0341    9.2688    1.8815 C   0  0  2  0  0  0  0  0  0  0  0  0
   25.6018    9.5919    0.4901 N   0  0  0  0  0  0  0  0  0  0  0  0
   25.9381   10.6277    2.7304 C   0  0  0  0  0  0  0  0  0  0  0  0
   26.3556   10.3708    4.2264 C   0  0  2  0  0  0  0  0  0  0  0  0
   26.2911   11.6132    5.0101 N   0  0  0  0  0  0  0  0  0  0  0  0
   27.7986    9.8322    4.2930 C   0  0  2  0  0  0  0  0  0  0  0  0
   27.9290    8.4928    3.4613 C   0  0  2  0  0  0  0  0  0  0  0  0
   29.3337    8.0583    3.5938 O   0  0  0  0  0  0  0  0  0  0  0  0
   27.5595    8.7975    1.9211 C   0  0  1  0  0  0  0  0  0  0  0  0
   27.6877    7.6097    1.2053 O   0  0  0  0  0  0  0  0  0  0  0  0
   30.3629    8.5696    3.0088 C   0  0  1  0  0  0  0  0  0  0  0  0
   30.5153    8.2350    1.4957 C   0  0  2  0  0  0  0  0  0  0  0  0
   31.2877    7.0814    1.3832 O   0  0  0  0  0  0  0  0  0  0  0  0
   31.2641    9.4329    1.0807 C   0  0  1  0  0  0  0  0  0  0  0  0
   30.6840   10.6595    1.8504 C   0  0  2  0  0  0  0  0  0  0  0  0
   30.4536   10.0296    3.0867 O   0  0  0  0  0  0  0  0  0  0  0  0
   29.5232   11.4277    1.2167 C   0  0  0  0  0  0  0  0  0  0  0  0
   29.9209   11.7240   -0.1087 O   0  0  0  0  0  0  0  0  0  0  0  0
   33.6282   10.0880    1.0081 C   0  0  2  0  0  0  0  0  0  0  0  0
   32.7022    9.1689    1.4098 O   0  0  0  0  0  0  0  0  0  0  0  0
   33.6062   10.2990   -0.4772 C   0  0  1  0  0  0  0  0  0  0  0  0
   38.7320   11.2073    1.1738 N   0  0  0  0  0  0  0  0  0  0  0  0
   23.2479    8.3564   -2.1754 O   0  0  0  0  0  0  0  0  0  0  0  0
   34.7315   11.3310   -0.8758 C   0  0  2  0  0  0  0  0  0  0  0  0
   36.1692   10.9015   -0.4206 C   0  0  1  0  0  0  0  0  0  0  0  0
   36.1676   10.7143    1.0114 C   0  0  1  0  0  0  0  0  0  0  0  0
   35.0928    9.7254    1.4211 O   0  0  0  0  0  0  0  0  0  0  0  0
   37.5996   10.2340    1.5133 C   0  0  0  0  0  0  0  0  0  0  0  0
   33.8718    9.0846   -1.1413 N   0  0  0  0  0  0  0  0  0  0  0  0
   28.7250   10.2264    9.6005 O   0  0  0  0  0  0  0  0  0  0  0  0
   23.3468   10.4982   -1.4251 C   0  0  0  0  0  0  0  0  0  0  0  0
   36.4251    9.9030   -0.9257 O   0  0  0  0  0  0  0  0  0  0  0  0
   34.5031   12.3296   -0.3526 O   0  0  0  0  0  0  0  0  0  0  0  0
   24.3746    8.8963   -0.0185 C   0  0  0  0  0  0  0  0  0  0  0  0
   24.2508   11.5227   -1.2538 C   0  0  0  0  0  0  0  0  0  0  0  0
   24.0292    9.3584   -1.5280 C   0  0  1  0  0  0  0  0  0  0  0  0
   31.2323   10.5526    8.7589 F   0  0  0  0  0  0  0  0  0  0  0  0
  1  2  1  6  0  0  0
  1 10  1  0  0  0  0
  1  3  1  0  0  0  0
  3  4  1  6  0  0  0
  3  6  1  0  0  0  0
  5 46  2  0  0  0  0
  6 42  1  1  0  0  0
  6  8  1  0  0  0  0
  7 47  1  0  0  0  0
  8  9  1  0  0  0  0
  8 49  1  1  0  0  0
  9 10  1  0  0  0  0
  9 11  1  1  0  0  0
 11 12  1  0  0  0  0
 13 14  1  6  0  0  0
 13 15  1  0  0  0  0
 13 21  1  0  0  0  0
 14 46  1  0  0  0  0
 15 16  1  0  0  0  0
 16 17  1  1  0  0  0
 16 18  1  0  0  0  0
 18  2  1  1  0  0  0
 18 19  1  0  0  0  0
 19 20  1  6  0  0  0
 19 21  1  0  0  0  0
 21 22  1  6  0  0  0
 23 20  1  6  0  0  0
 23 24  1  0  0  0  0
 23 28  1  0  0  0  0
 24 25  1  1  0  0  0
 24 26  1  0  0  0  0
 26 27  1  0  0  0  0
 26 32  1  1  0  0  0
 27 28  1  0  0  0  0
 27 29  1  6  0  0  0
 29 30  1  0  0  0  0
 31 32  1  6  0  0  0
 31 33  1  0  0  0  0
 31 39  1  0  0  0  0
 33 36  1  0  0  0  0
 33 41  1  6  0  0  0
 34 40  1  0  0  0  0
 35 48  1  0  0  0  0
 36 37  1  0  0  0  0
 36 45  1  1  0  0  0
 37 38  1  0  0  0  0
 37 44  1  6  0  0  0
 38 39  1  0  0  0  0
 38 40  1  6  0  0  0
 43 47  1  0  0  0  0
 46 48  1  0  0  0  0
 48 43  1  1  0  0  0
M  END
>  <CHROM.1>
-174.02504389,173.12129884,-179.37221159,-117.27349341,-74.85441547,-74.53146815
174.15764293,-50.83553633,-58.16273296,58.73442075,65.00620628,-158.84568891
-24.19486548,29.88848303,9.96209619,2.55816091,-3.09506999,-0.09312075,-1.58263254

>  <Name>
ligand

>  <RI>
0

>  <Rbt.Current_Directory>
/home/itssahil/PROJECTS/Mol_Feturizer/New_Systems/rnas/4PDQ

>  <Rbt.Executable>
rbdock ($Id: //depot/dev/client3/rdock/2013.1/src/exe/rbdock.cxx#4 $)

>  <Rbt.Library>
libRbt.so (2013.1, Build901 2013/11/27)

>  <Rbt.Parameter_File>
/export/apps/rDock/src/rDock_2013.1_src/data/scripts/dock_solv.prm

>  <Rbt.Receptor>
prm/pocket_docking_4.prm

>  <SCORE>
-17.7697

>  <SCORE.INTER>
-5.36498

>  <SCORE.INTER.CONST>
1

>  <SCORE.INTER.POLAR>
0

>  <SCORE.INTER.ROT>
13

>  <SCORE.INTER.SOLV>
16.2238

>  <SCORE.INTER.VDW>
-21.2513

>  <SCORE.INTER.norm>
-0.109489

>  <SCORE.INTRA>
-12.4047

>  <SCORE.INTRA.DIHEDRAL>
-27.4498

>  <SCORE.INTRA.DIHEDRAL.0>
34.5115

>  <SCORE.INTRA.POLAR>
0

>  <SCORE.INTRA.POLAR.0>
0

>  <SCORE.INTRA.REPUL>
0.00743841

>  <SCORE.INTRA.REPUL.0>
0

>  <SCORE.INTRA.SOLV>
-0.0622032

>  <SCORE.INTRA.SOLV.lig_0>
-122.812

>  <SCORE.INTRA.VDW>
1.3141

>  <SCORE.INTRA.VDW.0>
-7.46208

>  <SCORE.INTRA.norm>
-0.253157

>  <SCORE.RESTR>
0

>  <SCORE.RESTR.CAVITY>
0

>  <SCORE.RESTR.norm>
0

>  <SCORE.SYSTEM>
0

>  <SCORE.SYSTEM.CONST>
0

>  <SCORE.SYSTEM.DIHEDRAL>
0

>  <SCORE.SYSTEM.SOLV>
0

>  <SCORE.SYSTEM.norm>
0

>  <SCORE.heavy>
49

>  <SCORE.norm>
-0.362647

>  <RMSD>
9.855

$$$$
ligand
 OpenBabel11021811513D
libRbt.so/2013.1/901 2013/11/27
 49 52  0  0  0  0  0  0  0  0999 V2000
   29.6714   10.6482    5.3856 C   0  0  2  0  0  0  0  0  0  0  0  0
   28.4246   10.7882    4.7709 O   0  0  0  0  0  0  0  0  0  0  0  0
   29.5480    9.6834    6.6229 C   0  0  2  0  0  0  0  0  0  0  0  0
   29.0347    8.3317    6.1517 N   0  0  0  0  0  0  0  0  0  0  0  0
   23.9955   10.7845   -0.1040 O   0  0  0  0  0  0  0  0  0  0  0  0
   28.6176   10.2979    7.6946 C   0  0  2  0  0  0  0  0  0  0  0  0
   24.6723   15.3706   -3.6719 N   0  0  0  0  0  0  0  0  0  0  0  0
   29.1456   11.6706    8.1401 C   0  0  2  0  0  0  0  0  0  0  0  0
   29.2855   12.6723    6.9167 C   0  0  2  0  0  0  0  0  0  0  0  0
   30.1679   12.0014    5.8623 O   0  0  0  0  0  0  0  0  0  0  0  0
   29.8729   14.0413    7.3663 C   0  0  0  0  0  0  0  0  0  0  0  0
   28.9597   14.8448    8.0974 N   0  0  0  0  0  0  0  0  0  0  0  0
   26.7631   11.0051    0.7715 C   0  0  2  0  0  0  0  0  0  0  0  0
   26.2581   11.5972   -0.5018 N   0  0  0  0  0  0  0  0  0  0  0  0
   26.1087   11.8458    1.9721 C   0  0  0  0  0  0  0  0  0  0  0  0
   26.5716   11.2691    3.3619 C   0  0  2  0  0  0  0  0  0  0  0  0
   25.9946   12.0439    4.4703 N   0  0  0  0  0  0  0  0  0  0  0  0
   28.1077   11.3285    3.4796 C   0  0  2  0  0  0  0  0  0  0  0  0
   28.7853   10.5117    2.3064 C   0  0  2  0  0  0  0  0  0  0  0  0
   30.2429   10.6235    2.5122 O   0  0  0  0  0  0  0  0  0  0  0  0
   28.3473   11.1627    0.8972 C   0  0  1  0  0  0  0  0  0  0  0  0
   28.9594   10.4357   -0.1208 O   0  0  0  0  0  0  0  0  0  0  0  0
   31.1487    9.7964    2.1143 C   0  0  1  0  0  0  0  0  0  0  0  0
   30.6246    8.4794    1.4699 C   0  0  2  0  0  0  0  0  0  0  0  0
   30.4956    7.5261    2.4771 O   0  0  0  0  0  0  0  0  0  0  0  0
   31.7725    8.1923    0.5937 C   0  0  1  0  0  0  0  0  0  0  0  0
   32.2816    9.5426    0.0013 C   0  0  2  0  0  0  0  0  0  0  0  0
   32.0987   10.3438    1.1429 O   0  0  0  0  0  0  0  0  0  0  0  0
   31.6730   10.0302   -1.3143 C   0  0  0  0  0  0  0  0  0  0  0  0
   32.0005    9.0562   -2.2873 O   0  0  0  0  0  0  0  0  0  0  0  0
   34.0274    7.2745    0.9042 C   0  0  2  0  0  0  0  0  0  0  0  0
   32.7979    7.5106    1.4482 O   0  0  0  0  0  0  0  0  0  0  0  0
   34.8476    6.3425    1.7467 C   0  0  1  0  0  0  0  0  0  0  0  0
   38.3002    9.6704   -0.9131 N   0  0  0  0  0  0  0  0  0  0  0  0
   23.0453   11.8314   -2.5255 O   0  0  0  0  0  0  0  0  0  0  0  0
   36.2691    6.1553    1.0876 C   0  0  2  0  0  0  0  0  0  0  0  0
   37.0453    7.5007    0.8727 C   0  0  1  0  0  0  0  0  0  0  0  0
   36.2414    8.3760    0.0523 C   0  0  1  0  0  0  0  0  0  0  0  0
   34.8676    8.5722    0.6647 O   0  0  0  0  0  0  0  0  0  0  0  0
   36.9731    9.7740   -0.1560 C   0  0  0  0  0  0  0  0  0  0  0  0
   35.0307    6.8891    3.0328 N   0  0  0  0  0  0  0  0  0  0  0  0
   28.5767    9.5990    8.5980 O   0  0  0  0  0  0  0  0  0  0  0  0
   24.6078   13.4081   -2.0432 C   0  0  0  0  0  0  0  0  0  0  0  0
   37.2045    7.9938    1.8970 O   0  0  0  0  0  0  0  0  0  0  0  0
   36.1225    5.6879    0.0468 O   0  0  0  0  0  0  0  0  0  0  0  0
   24.8059   11.3941   -0.8162 C   0  0  0  0  0  0  0  0  0  0  0  0
   24.5751   14.0102   -3.2811 C   0  0  0  0  0  0  0  0  0  0  0  0
   24.4104   12.1015   -2.2143 C   0  0  1  0  0  0  0  0  0  0  0  0
   30.4114   11.5267    8.7353 F   0  0  0  0  0  0  0  0  0  0  0  0
  1  2  1  1  0  0  0
  1 10  1  0  0  0  0
  1  3  1  0  0  0  0
  3  4  1  6  0  0  0
  3  6  1  0  0  0  0
  5 46  2  0  0  0  0
  6 42  1  1  0  0  0
  6  8  1  0  0  0  0
  7 47  1  0  0  0  0
  8  9  1  0  0  0  0
  8 49  1  6  0  0  0
  9 10  1  0  0  0  0
  9 11  1  1  0  0  0
 11 12  1  0  0  0  0
 13 14  1  6  0  0  0
 13 15  1  0  0  0  0
 13 21  1  0  0  0  0
 14 46  1  0  0  0  0
 15 16  1  0  0  0  0
 16 17  1  1  0  0  0
 16 18  1  0  0  0  0
 18  2  1  1  0  0  0
 18 19  1  0  0  0  0
 19 20  1  1  0  0  0
 19 21  1  0  0  0  0
 21 22  1  6  0  0  0
 23 20  1  6  0  0  0
 23 24  1  0  0  0  0
 23 28  1  0  0  0  0
 24 25  1  1  0  0  0
 24 26  1  0  0  0  0
 26 27  1  0  0  0  0
 26 32  1  1  0  0  0
 27 28  1  0  0  0  0
 27 29  1  6  0  0  0
 29 30  1  0  0  0  0
 31 32  1  1  0  0  0
 31 33  1  0  0  0  0
 31 39  1  0  0  0  0
 33 36  1  0  0  0  0
 33 41  1  1  0  0  0
 34 40  1  0  0  0  0
 35 48  1  0  0  0  0
 36 37  1  0  0  0  0
 36 45  1  6  0  0  0
 37 38  1  0  0  0  0
 37 44  1  1  0  0  0
 38 39  1  0  0  0  0
 38 40  1  1  0  0  0
 43 47  1  0  0  0  0
 46 48  1  0  0  0  0
 48 43  1  1  0  0  0
M  END
>  <CHROM.1>
-165.73441629,-178.15509156,-73.32725818,-69.43617805,154.53719101,-6.26750498
-172.64550792,-62.43479982,-167.89559337,63.35900947,177.06770154,-73.90841840
-4.09064063,30.22076724,10.22686537,2.14311586,-3.10003122,0.43085746,-1.65510805

>  <Name>
ligand

>  <RI>
0

>  <Rbt.Current_Directory>
/home/itssahil/PROJECTS/Mol_Feturizer/New_Systems/rnas/4PDQ

>  <Rbt.Executable>
rbdock ($Id: //depot/dev/client3/rdock/2013.1/src/exe/rbdock.cxx#4 $)

>  <Rbt.Library>
libRbt.so (2013.1, Build901 2013/11/27)

>  <Rbt.Parameter_File>
/export/apps/rDock/src/rDock_2013.1_src/data/scripts/dock_solv.prm

>  <Rbt.Receptor>
prm/pocket_docking_4.prm

>  <SCORE>
-11.7658

>  <SCORE.INTER>
-2.7255

>  <SCORE.INTER.CONST>
1

>  <SCORE.INTER.POLAR>
0

>  <SCORE.INTER.ROT>
13

>  <SCORE.INTER.SOLV>
21.0917

>  <SCORE.INTER.VDW>
-21.1142

>  <SCORE.INTER.norm>
-0.0556225

>  <SCORE.INTRA>
-9.3229

>  <SCORE.INTRA.DIHEDRAL>
-20.5237

>  <SCORE.INTRA.DIHEDRAL.0>
34.5115

>  <SCORE.INTRA.POLAR>
0

>  <SCORE.INTRA.POLAR.0>
0

>  <SCORE.INTRA.REPUL>
0

>  <SCORE.INTRA.REPUL.0>
0

>  <SCORE.INTRA.SOLV>
-3.7511

>  <SCORE.INTRA.SOLV.lig_0>
-122.812

>  <SCORE.INTRA.VDW>
2.81452

>  <SCORE.INTRA.VDW.0>
-7.46208

>  <SCORE.INTRA.norm>
-0.190263

>  <SCORE.RESTR>
0.282561

>  <SCORE.RESTR.CAVITY>
0.282561

>  <SCORE.RESTR.norm>
0.00576655

>  <SCORE.SYSTEM>
0

>  <SCORE.SYSTEM.CONST>
0

>  <SCORE.SYSTEM.DIHEDRAL>
0

>  <SCORE.SYSTEM.SOLV>
0

>  <SCORE.SYSTEM.norm>
0

>  <SCORE.heavy>
49

>  <SCORE.norm>
-0.240119

>  <RMSD>
9.866

$$$$
ligand
 OpenBabel11021811513D
libRbt.so/2013.1/901 2013/11/27
 49 52  0  0  0  0  0  0  0  0999 V2000
   29.2019    9.5626    6.8601 C   0  0  2  0  0  0  0  0  0  0  0  0
   29.5185   10.0820    5.6024 O   0  0  0  0  0  0  0  0  0  0  0  0
   30.4930    9.5250    7.7594 C   0  0  2  0  0  0  0  0  0  0  0  0
   31.0488   10.9342    7.8926 N   0  0  0  0  0  0  0  0  0  0  0  0
   26.7213   11.3071    0.7207 O   0  0  0  0  0  0  0  0  0  0  0  0
   31.5408    8.5598    7.1576 C   0  0  2  0  0  0  0  0  0  0  0  0
   23.1479   10.7965   -3.0848 N   0  0  0  0  0  0  0  0  0  0  0  0
   30.9501    7.1483    7.0143 C   0  0  2  0  0  0  0  0  0  0  0  0
   29.6430    7.1464    6.1137 C   0  0  2  0  0  0  0  0  0  0  0  0
   28.6596    8.1520    6.7156 O   0  0  0  0  0  0  0  0  0  0  0  0
   29.0193    5.7238    6.0189 C   0  0  0  0  0  0  0  0  0  0  0  0
   27.8189    5.6732    5.2637 N   0  0  0  0  0  0  0  0  0  0  0  0
   25.9826    9.8121    3.1069 C   0  0  2  0  0  0  0  0  0  0  0  0
   25.0275   10.1099    1.9996 N   0  0  0  0  0  0  0  0  0  0  0  0
   26.4359   11.2213    3.7276 C   0  0  0  0  0  0  0  0  0  0  0  0
   27.4320   10.9980    4.9260 C   0  0  2  0  0  0  0  0  0  0  0  0
   27.8706   12.2829    5.4904 N   0  0  0  0  0  0  0  0  0  0  0  0
   28.6800   10.2300    4.4470 C   0  0  2  0  0  0  0  0  0  0  0  0
   28.2672    8.8353    3.8246 C   0  0  2  0  0  0  0  0  0  0  0  0
   29.5227    8.1805    3.4071 O   0  0  0  0  0  0  0  0  0  0  0  0
   27.3004    9.0945    2.5599 C   0  0  1  0  0  0  0  0  0  0  0  0
   26.9551    7.8571    2.0221 O   0  0  0  0  0  0  0  0  0  0  0  0
   30.3645    8.6052    2.5274 C   0  0  1  0  0  0  0  0  0  0  0  0
   31.6427    7.7357    2.3408 C   0  0  2  0  0  0  0  0  0  0  0  0
   32.6237    8.2174    3.2042 O   0  0  0  0  0  0  0  0  0  0  0  0
   31.9372    8.0772    0.9391 C   0  0  1  0  0  0  0  0  0  0  0  0
   30.5850    8.1684    0.1666 C   0  0  2  0  0  0  0  0  0  0  0  0
   29.8160    8.7700    1.1792 O   0  0  0  0  0  0  0  0  0  0  0  0
   30.0360    6.8971   -0.4824 C   0  0  0  0  0  0  0  0  0  0  0  0
   29.7788    5.9919    0.5745 O   0  0  0  0  0  0  0  0  0  0  0  0
   34.0000    9.3549    1.3072 C   0  0  2  0  0  0  0  0  0  0  0  0
   32.6783    9.3796    0.9668 O   0  0  0  0  0  0  0  0  0  0  0  0
   34.6626   10.6840    1.0935 C   0  0  1  0  0  0  0  0  0  0  0  0
   36.3114    5.6835    0.1312 N   0  0  0  0  0  0  0  0  0  0  0  0
   24.7722   12.2151   -1.1252 O   0  0  0  0  0  0  0  0  0  0  0  0
   36.1939   10.5696    1.4569 C   0  0  2  0  0  0  0  0  0  0  0  0
   36.9519    9.4609    0.6475 C   0  0  1  0  0  0  0  0  0  0  0  0
   36.3026    8.1914    0.8767 C   0  0  1  0  0  0  0  0  0  0  0  0
   34.8271    8.2749    0.5347 O   0  0  0  0  0  0  0  0  0  0  0  0
   37.0138    7.0411    0.0377 C   0  0  0  0  0  0  0  0  0  0  0  0
   34.5618   11.0614   -0.2607 N   0  0  0  0  0  0  0  0  0  0  0  0
   32.4503    8.5189    7.8485 O   0  0  0  0  0  0  0  0  0  0  0  0
   24.3356    9.9909   -0.9756 C   0  0  0  0  0  0  0  0  0  0  0  0
   36.8826    9.7176   -0.4691 O   0  0  0  0  0  0  0  0  0  0  0  0
   36.2779   10.2841    2.5680 O   0  0  0  0  0  0  0  0  0  0  0  0
   25.5584   10.8951    0.8376 C   0  0  0  0  0  0  0  0  0  0  0  0
   23.2819   10.1018   -1.8551 C   0  0  0  0  0  0  0  0  0  0  0  0
   24.4135   11.1244   -0.2796 C   0  0  1  0  0  0  0  0  0  0  0  0
   30.6102    6.6406    8.2808 F   0  0  0  0  0  0  0  0  0  0  0  0
  1  2  1  6  0  0  0
  1 10  1  0  0  0  0
  1  3  1  0  0  0  0
  3  4  1  6  0  0  0
  3  6  1  0  0  0  0
  5 46  2  0  0  0  0
  6 42  1  1  0  0  0
  6  8  1  0  0  0  0
  7 47  1  0  0  0  0
  8  9  1  0  0  0  0
  8 49  1  1  0  0  0
  9 10  1  0  0  0  0
  9 11  1  1  0  0  0
 11 12  1  0  0  0  0
 13 14  1  6  0  0  0
 13 15  1  0  0  0  0
 13 21  1  0  0  0  0
 14 46  1  0  0  0  0
 15 16  1  0  0  0  0
 16 17  1  6  0  0  0
 16 18  1  0  0  0  0
 18  2  1  1  0  0  0
 18 19  1  0  0  0  0
 19 20  1  6  0  0  0
 19 21  1  0  0  0  0
 21 22  1  1  0  0  0
 23 20  1  1  0  0  0
 23 24  1  0  0  0  0
 23 28  1  0  0  0  0
 24 25  1  1  0  0  0
 24 26  1  0  0  0  0
 26 27  1  0  0  0  0
 26 32  1  1  0  0  0
 27 28  1  0  0  0  0
 27 29  1  1  0  0  0
 29 30  1  0  0  0  0
 31 32  1  6  0  0  0
 31 33  1  0  0  0  0
 31 39  1  0  0  0  0
 33 36  1  0  0  0  0
 33 41  1  6  0  0  0
 34 40  1  0  0  0  0
 35 48  1  0  0  0  0
 36 37  1  0  0  0  0
 36 45  1  1  0  0  0
 37 38  1  0  0  0  0
 37 44  1  6  0  0  0
 38 39  1  0  0  0  0
 38 40  1  6  0  0  0
 43 47  1  0  0  0  0
 46 48  1  0  0  0  0
 48 43  1  6  0  0  0
M  END
>  <CHROM.1>
176.16661216,52.83985599,177.84527538,62.59148850,-61.88830677,177.15313025
77.73096720,63.15085155,171.31658872,-175.03679892,76.61116535,-66.23971448
-20.48033291,30.22910189,9.05424616,2.70432415,3.06604420,0.14769889,-1.41054798

>  <Name>
ligand

>  <RI>
0

>  <Rbt.Current_Directory>
/home/itssahil/PROJECTS/Mol_Feturizer/New_Systems/rnas/4PDQ

>  <Rbt.Executable>
rbdock ($Id: //depot/dev/client3/rdock/2013.1/src/exe/rbdock.cxx#4 $)

>  <Rbt.Library>
libRbt.so (2013.1, Build901 2013/11/27)

>  <Rbt.Parameter_File>
/export/apps/rDock/src/rDock_2013.1_src/data/scripts/dock_solv.prm

>  <Rbt.Receptor>
prm/pocket_docking_5.prm

>  <SCORE>
-15.3759

>  <SCORE.INTER>
-3.90316

>  <SCORE.INTER.CONST>
1

>  <SCORE.INTER.POLAR>
0

>  <SCORE.INTER.ROT>
13

>  <SCORE.INTER.SOLV>
18.24

>  <SCORE.INTER.VDW>
-20.9488

>  <SCORE.INTER.norm>
-0.0796562

>  <SCORE.INTRA>
-11.4727

>  <SCORE.INTRA.DIHEDRAL>
-29.7539

>  <SCORE.INTRA.DIHEDRAL.0>
34.5115

>  <SCORE.INTRA.POLAR>
0

>  <SCORE.INTRA.POLAR.0>
0

>  <SCORE.INTRA.REPUL>
0.000822525

>  <SCORE.INTRA.REPUL.0>
0

>  <SCORE.INTRA.SOLV>
0.142183

>  <SCORE.INTRA.SOLV.lig_0>
-122.812

>  <SCORE.INTRA.VDW>
3.32907

>  <SCORE.INTRA.VDW.0>
-7.46208

>  <SCORE.INTRA.norm>
-0.234137

>  <SCORE.RESTR>
0

>  <SCORE.RESTR.CAVITY>
0

>  <SCORE.RESTR.norm>
0

>  <SCORE.SYSTEM>
0

>  <SCORE.SYSTEM.CONST>
0

>  <SCORE.SYSTEM.DIHEDRAL>
0

>  <SCORE.SYSTEM.SOLV>
0

>  <SCORE.SYSTEM.norm>
0

>  <SCORE.heavy>
49

>  <SCORE.norm>
-0.313793

>  <RMSD>
9.880

$$$$
ligand
 OpenBabel11021811513D
libRbt.so/2013.1/901 2013/11/27
 49 52  0  0  0  0  0  0  0  0999 V2000
   27.4195    5.8486    6.9385 C   0  0  2  0  0  0  0  0  0  0  0  0
   26.1863    6.1741    6.3684 O   0  0  0  0  0  0  0  0  0  0  0  0
   27.1983    4.9082    8.1811 C   0  0  2  0  0  0  0  0  0  0  0  0
   26.4737    3.6494    7.7308 N   0  0  0  0  0  0  0  0  0  0  0  0
   25.4034    9.4234    1.6958 O   0  0  0  0  0  0  0  0  0  0  0  0
   26.4080    5.6502    9.2842 C   0  0  2  0  0  0  0  0  0  0  0  0
   22.4585    9.2984   -2.9930 N   0  0  0  0  0  0  0  0  0  0  0  0
   27.1493    6.9278    9.7082 C   0  0  2  0  0  0  0  0  0  0  0  0
   27.3928    7.9019    8.4788 C   0  0  2  0  0  0  0  0  0  0  0  0
   28.1279    7.1114    7.3949 O   0  0  0  0  0  0  0  0  0  0  0  0
   28.1924    9.1671    8.9049 C   0  0  0  0  0  0  0  0  0  0  0  0
   28.3199   10.1378    7.8776 N   0  0  0  0  0  0  0  0  0  0  0  0
   24.2084    6.9213    2.5825 C   0  0  2  0  0  0  0  0  0  0  0  0
   23.7743    7.6442    1.3513 N   0  0  0  0  0  0  0  0  0  0  0  0
   24.0233    7.9359    3.8125 C   0  0  0  0  0  0  0  0  0  0  0  0
   24.4376    7.2420    5.1634 C   0  0  2  0  0  0  0  0  0  0  0  0
   24.2916    8.1684    6.2958 N   0  0  0  0  0  0  0  0  0  0  0  0
   25.9088    6.7853    5.0998 C   0  0  2  0  0  0  0  0  0  0  0  0
   26.1269    5.7855    3.8933 C   0  0  2  0  0  0  0  0  0  0  0  0
   27.5529    5.4047    3.9238 O   0  0  0  0  0  0  0  0  0  0  0  0
   25.7582    6.5412    2.5169 C   0  0  1  0  0  0  0  0  0  0  0  0
   25.9639    5.6484    1.4680 O   0  0  0  0  0  0  0  0  0  0  0  0
   28.5174    5.9545    3.2679 C   0  0  1  0  0  0  0  0  0  0  0  0
   29.9492    5.6780    3.8139 C   0  0  2  0  0  0  0  0  0  0  0  0
   30.2699    6.6873    4.7185 O   0  0  0  0  0  0  0  0  0  0  0  0
   30.6959    5.8210    2.5530 C   0  0  1  0  0  0  0  0  0  0  0  0
   29.8467    5.1834    1.4102 C   0  0  2  0  0  0  0  0  0  0  0  0
   28.5767    5.6008    1.8477 O   0  0  0  0  0  0  0  0  0  0  0  0
   30.0414    3.6969    1.1079 C   0  0  0  0  0  0  0  0  0  0  0  0
   29.2241    3.4098   -0.0111 O   0  0  0  0  0  0  0  0  0  0  0  0
   32.0879    7.8241    2.8231 C   0  0  2  0  0  0  0  0  0  0  0  0
   30.9210    7.2898    2.3579 O   0  0  0  0  0  0  0  0  0  0  0  0
   32.1010    9.3213    2.7262 C   0  0  1  0  0  0  0  0  0  0  0  0
   35.8037    7.3859    0.2462 N   0  0  0  0  0  0  0  0  0  0  0  0
   24.4252   10.9012   -0.4882 O   0  0  0  0  0  0  0  0  0  0  0  0
   33.4932    9.8661    3.2311 C   0  0  2  0  0  0  0  0  0  0  0  0
   34.7201    9.2721    2.4560 C   0  0  1  0  0  0  0  0  0  0  0  0
   34.6913    7.8329    2.5718 C   0  0  1  0  0  0  0  0  0  0  0  0
   33.3611    7.2834    2.0925 O   0  0  0  0  0  0  0  0  0  0  0  0
   35.8971    7.1832    1.7612 C   0  0  0  0  0  0  0  0  0  0  0  0
   31.9363    9.7197    1.3844 N   0  0  0  0  0  0  0  0  0  0  0  0
   26.2959    4.9618   10.1897 O   0  0  0  0  0  0  0  0  0  0  0  0
   24.3242    8.7930   -1.3279 C   0  0  0  0  0  0  0  0  0  0  0  0
   34.6210    9.5580    1.3488 O   0  0  0  0  0  0  0  0  0  0  0  0
   33.6188    9.5613    4.3331 O   0  0  0  0  0  0  0  0  0  0  0  0
   24.4852    8.9248    1.0295 C   0  0  0  0  0  0  0  0  0  0  0  0
   23.7892    9.2755   -2.5014 C   0  0  0  0  0  0  0  0  0  0  0  0
   23.9140    9.5791   -0.3333 C   0  0  1  0  0  0  0  0  0  0  0  0
   28.4001    6.5956   10.2582 F   0  0  0  0  0  0  0  0  0  0  0  0
  1  2  1  1  0  0  0
  1 10  1  0  0  0  0
  1  3  1  0  0  0  0
  3  4  1  6  0  0  0
  3  6  1  0  0  0  0
  5 46  2  0  0  0  0
  6 42  1  1  0  0  0
  6  8  1  0  0  0  0
  7 47  1  0  0  0  0
  8  9  1  0  0  0  0
  8 49  1  6  0  0  0
  9 10  1  0  0  0  0
  9 11  1  1  0  0  0
 11 12  1  0  0  0  0
 13 14  1  6  0  0  0
 13 15  1  0  0  0  0
 13 21  1  0  0  0  0
 14 46  1  0  0  0  0
 15 16  1  0  0  0  0
 16 17  1  1  0  0  0
 16 18  1  0  0  0  0
 18  2  1  1  0  0  0
 18 19  1  0  0  0  0
 19 20  1  6  0  0  0
 19 21  1  0  0  0  0
 21 22  1  6  0  0  0
 23 20  1  1  0  0  0
 23 24  1  0  0  0  0
 23 28  1  0  0  0  0
 24 25  1  1  0  0  0
 24 26  1  0  0  0  0
 26 27  1  0  0  0  0
 26 32  1  6  0  0  0
 27 28  1  0  0  0  0
 27 29  1  1  0  0  0
 29 30  1  0  0  0  0
 31 32  1  6  0  0  0
 31 33  1  0  0  0  0
 31 39  1  0  0  0  0
 33 36  1  0  0  0  0
 33 41  1  6  0  0  0
 34 40  1  0  0  0  0
 35 48  1  0  0  0  0
 36 37  1  0  0  0  0
 36 45  1  1  0  0  0
 37 38  1  0  0  0  0
 37 44  1  6  0  0  0
 38 39  1  0  0  0  0
 38 40  1  6  0  0  0
 43 47  1  0  0  0  0
 46 48  1  0  0  0  0
 48 43  1  6  0  0  0
M  END
>  <CHROM.1>
-167.16373483,-165.20183420,-173.84657298,57.89451571,-93.94855508,160.97074838
93.20779057,-176.32276743,-172.39061683,-65.77055404,-69.74348836,-64.08843355
-11.43805627,28.36867899,7.28327417,3.66839274,-2.80428428,-0.02108378,-1.36113495

>  <Name>
ligand

>  <RI>
0

>  <Rbt.Current_Directory>
/home/itssahil/PROJECTS/Mol_Feturizer/New_Systems/rnas/4PDQ

>  <Rbt.Executable>
rbdock ($Id: //depot/dev/client3/rdock/2013.1/src/exe/rbdock.cxx#4 $)

>  <Rbt.Library>
libRbt.so (2013.1, Build901 2013/11/27)

>  <Rbt.Parameter_File>
/export/apps/rDock/src/rDock_2013.1_src/data/scripts/dock_solv.prm

>  <Rbt.Receptor>
prm/pocket_docking_7.prm

>  <SCORE>
-13.8327

>  <SCORE.INTER>
-6.47402

>  <SCORE.INTER.CONST>
1

>  <SCORE.INTER.POLAR>
0

>  <SCORE.INTER.ROT>
13

>  <SCORE.INTER.SOLV>
14.1023

>  <SCORE.INTER.VDW>
-21.2834

>  <SCORE.INTER.norm>
-0.132123

>  <SCORE.INTRA>
-7.35868

>  <SCORE.INTRA.DIHEDRAL>
-20.5108

>  <SCORE.INTRA.DIHEDRAL.0>
34.5115

>  <SCORE.INTRA.POLAR>
0

>  <SCORE.INTRA.POLAR.0>
0

>  <SCORE.INTRA.REPUL>
0

>  <SCORE.INTRA.REPUL.0>
0

>  <SCORE.INTRA.SOLV>
-1.60734

>  <SCORE.INTRA.SOLV.lig_0>
-122.812

>  <SCORE.INTRA.VDW>
3.70041

>  <SCORE.INTRA.VDW.0>
-7.46208

>  <SCORE.INTRA.norm>
-0.150177

>  <SCORE.RESTR>
0

>  <SCORE.RESTR.CAVITY>
0

>  <SCORE.RESTR.norm>
0

>  <SCORE.SYSTEM>
0

>  <SCORE.SYSTEM.CONST>
0

>  <SCORE.SYSTEM.DIHEDRAL>
0

>  <SCORE.SYSTEM.SOLV>
0

>  <SCORE.SYSTEM.norm>
0

>  <SCORE.heavy>
49

>  <SCORE.norm>
-0.2823

>  <RMSD>
9.892

$$$$
ligand
 OpenBabel11021811513D
libRbt.so/2013.1/901 2013/11/27
 49 52  0  0  0  0  0  0  0  0999 V2000
   28.7146    9.0547    7.0692 C   0  0  2  0  0  0  0  0  0  0  0  0
   27.4748    8.9222    6.4388 O   0  0  0  0  0  0  0  0  0  0  0  0
   28.7667    8.1258    8.3387 C   0  0  2  0  0  0  0  0  0  0  0  0
   28.5411    6.6840    7.9110 N   0  0  0  0  0  0  0  0  0  0  0  0
   25.6300    7.8096   -0.0741 O   0  0  0  0  0  0  0  0  0  0  0  0
   27.7154    8.5766    9.3796 C   0  0  2  0  0  0  0  0  0  0  0  0
   23.2687   11.7971   -2.9936 N   0  0  0  0  0  0  0  0  0  0  0  0
   27.9517   10.0411    9.7811 C   0  0  2  0  0  0  0  0  0  0  0  0
   27.9082   11.0097    8.5243 C   0  0  2  0  0  0  0  0  0  0  0  0
   28.9234   10.4947    7.5023 O   0  0  0  0  0  0  0  0  0  0  0  0
   28.2033   12.4827    8.9306 C   0  0  0  0  0  0  0  0  0  0  0  0
   28.0705   13.4093    7.8640 N   0  0  0  0  0  0  0  0  0  0  0  0
   25.6221    9.1237    2.5236 C   0  0  2  0  0  0  0  0  0  0  0  0
   24.9813    9.7080    1.3090 N   0  0  0  0  0  0  0  0  0  0  0  0
   24.9089    9.7906    3.7975 C   0  0  0  0  0  0  0  0  0  0  0  0
   25.5111    9.2088    5.1306 C   0  0  2  0  0  0  0  0  0  0  0  0
   24.8796    9.8272    6.3057 N   0  0  0  0  0  0  0  0  0  0  0  0
   27.0267    9.4836    5.1964 C   0  0  2  0  0  0  0  0  0  0  0  0
   27.7606    8.8420    3.9504 C   0  0  2  0  0  0  0  0  0  0  0  0
   29.1951    9.1522    4.1101 O   0  0  0  0  0  0  0  0  0  0  0  0
   27.1717    9.5020    2.6017 C   0  0  1  0  0  0  0  0  0  0  0  0
   27.8350    8.9308    1.5185 O   0  0  0  0  0  0  0  0  0  0  0  0
   30.1773    8.6470    3.4445 C   0  0  1  0  0  0  0  0  0  0  0  0
   30.8503    9.5957    2.4093 C   0  0  2  0  0  0  0  0  0  0  0  0
   30.2087    9.4251    1.1849 O   0  0  0  0  0  0  0  0  0  0  0  0
   32.1956    8.9972    2.4059 C   0  0  1  0  0  0  0  0  0  0  0  0
   32.5499    8.5895    3.8693 C   0  0  2  0  0  0  0  0  0  0  0  0
   31.2784    8.1357    4.2642 O   0  0  0  0  0  0  0  0  0  0  0  0
   33.2445    9.6212    4.7593 C   0  0  0  0  0  0  0  0  0  0  0  0
   32.3567   10.7186    4.8608 O   0  0  0  0  0  0  0  0  0  0  0  0
   33.3079    7.3680    0.9459 C   0  0  2  0  0  0  0  0  0  0  0  0
   32.1352    7.8239    1.4753 O   0  0  0  0  0  0  0  0  0  0  0  0
   33.8510    6.1936    1.7055 C   0  0  1  0  0  0  0  0  0  0  0  0
   38.0756    8.9113   -0.5229 N   0  0  0  0  0  0  0  0  0  0  0  0
   22.9509    9.8645   -0.8500 O   0  0  0  0  0  0  0  0  0  0  0  0
   35.2277    5.7526    1.0728 C   0  0  2  0  0  0  0  0  0  0  0  0
   36.2967    6.8990    1.0297 C   0  0  1  0  0  0  0  0  0  0  0  0
   35.7554    8.0125    0.2862 C   0  0  1  0  0  0  0  0  0  0  0  0
   34.4297    8.4560    0.8750 O   0  0  0  0  0  0  0  0  0  0  0  0
   36.7925    9.2193    0.2542 C   0  0  0  0  0  0  0  0  0  0  0  0
   34.0824    6.5527    3.0486 N   0  0  0  0  0  0  0  0  0  0  0  0
   27.8006    7.9137   10.3068 O   0  0  0  0  0  0  0  0  0  0  0  0
   24.9481   10.8331   -1.3327 C   0  0  0  0  0  0  0  0  0  0  0  0
   36.5068    7.2378    2.1061 O   0  0  0  0  0  0  0  0  0  0  0  0
   35.0364    5.4373   -0.0168 O   0  0  0  0  0  0  0  0  0  0  0  0
   25.0741    8.9110    0.0422 C   0  0  0  0  0  0  0  0  0  0  0  0
   24.5419   11.3746   -2.5317 C   0  0  0  0  0  0  0  0  0  0  0  0
   24.3252    9.6659   -1.1746 C   0  0  1  0  0  0  0  0  0  0  0  0
   29.2111   10.1729   10.3923 F   0  0  0  0  0  0  0  0  0  0  0  0
  1  2  1  1  0  0  0
  1 10  1  0  0  0  0
  1  3  1  0  0  0  0
  3  4  1  6  0  0  0
  3  6  1  0  0  0  0
  5 46  2  0  0  0  0
  6 42  1  1  0  0  0
  6  8  1  0  0  0  0
  7 47  1  0  0  0  0
  8  9  1  0  0  0  0
  8 49  1  6  0  0  0
  9 10  1  0  0  0  0
  9 11  1  1  0  0  0
 11 12  1  0  0  0  0
 13 14  1  6  0  0  0
 13 15  1  0  0  0  0
 13 21  1  0  0  0  0
 14 46  1  0  0  0  0
 15 16  1  0  0  0  0
 16 17  1  1  0  0  0
 16 18  1  0  0  0  0
 18  2  1  1  0  0  0
 18 19  1  0  0  0  0
 19 20  1  1  0  0  0
 19 21  1  0  0  0  0
 21 22  1  6  0  0  0
 23 20  1  1  0  0  0
 23 24  1  0  0  0  0
 23 28  1  0  0  0  0
 24 25  1  6  0  0  0
 24 26  1  0  0  0  0
 26 27  1  0  0  0  0
 26 32  1  6  0  0  0
 27 28  1  0  0  0  0
 27 29  1  1  0  0  0
 29 30  1  0  0  0  0
 31 32  1  1  0  0  0
 31 33  1  0  0  0  0
 31 39  1  0  0  0  0
 33 36  1  0  0  0  0
 33 41  1  1  0  0  0
 34 40  1  0  0  0  0
 35 48  1  0  0  0  0
 36 37  1  0  0  0  0
 36 45  1  6  0  0  0
 37 38  1  0  0  0  0
 37 44  1  1  0  0  0
 38 39  1  0  0  0  0
 38 40  1  1  0  0  0
 43 47  1  0  0  0  0
 46 48  1  0  0  0  0
 48 43  1  1  0  0  0
M  END
>  <CHROM.1>
-174.11636522,-170.25197070,-175.15153300,-157.26864208,168.07609703,107.38080208
158.58974319,60.99309068,97.57107465,65.92760638,62.63478964,-73.59397257
119.79734094,29.59891509,9.02927174,3.49018095,-2.75661023,0.22891152,-1.63201751

>  <Name>
ligand

>  <RI>
0

>  <Rbt.Current_Directory>
/home/itssahil/PROJECTS/Mol_Feturizer/New_Systems/rnas/4PDQ

>  <Rbt.Executable>
rbdock ($Id: //depot/dev/client3/rdock/2013.1/src/exe/rbdock.cxx#4 $)

>  <Rbt.Library>
libRbt.so (2013.1, Build901 2013/11/27)

>  <Rbt.Parameter_File>
/export/apps/rDock/src/rDock_2013.1_src/data/scripts/dock_solv.prm

>  <Rbt.Receptor>
prm/pocket_docking_4.prm

>  <SCORE>
-8.18531

>  <SCORE.INTER>
-2.45296

>  <SCORE.INTER.CONST>
1

>  <SCORE.INTER.POLAR>
0

>  <SCORE.INTER.ROT>
13

>  <SCORE.INTER.SOLV>
14.0735

>  <SCORE.INTER.VDW>
-18.5931

>  <SCORE.INTER.norm>
-0.0500604

>  <SCORE.INTRA>
-5.78662

>  <SCORE.INTRA.DIHEDRAL>
-17.6862

>  <SCORE.INTRA.DIHEDRAL.0>
34.5115

>  <SCORE.INTRA.POLAR>
0

>  <SCORE.INTRA.POLAR.0>
0

>  <SCORE.INTRA.REPUL>
2.70742e-05

>  <SCORE.INTRA.REPUL.0>
0

>  <SCORE.INTRA.SOLV>
0.497681

>  <SCORE.INTRA.SOLV.lig_0>
-122.812

>  <SCORE.INTRA.VDW>
2.80753

>  <SCORE.INTRA.VDW.0>
-7.46208

>  <SCORE.INTRA.norm>
-0.118094

>  <SCORE.RESTR>
0.0542707

>  <SCORE.RESTR.CAVITY>
0.0542707

>  <SCORE.RESTR.norm>
0.00110757

>  <SCORE.SYSTEM>
0

>  <SCORE.SYSTEM.CONST>
0

>  <SCORE.SYSTEM.DIHEDRAL>
0

>  <SCORE.SYSTEM.SOLV>
0

>  <SCORE.SYSTEM.norm>
0

>  <SCORE.heavy>
49

>  <SCORE.norm>
-0.167047

>  <RMSD>
9.909

$$$$
ligand
 OpenBabel11021811513D
libRbt.so/2013.1/901 2013/11/27
 49 52  0  0  0  0  0  0  0  0999 V2000
   27.1015    6.9858    4.0815 C   0  0  2  0  0  0  0  0  0  0  0  0
   26.6969    6.9698    5.4187 O   0  0  0  0  0  0  0  0  0  0  0  0
   26.3693    8.1521    3.3193 C   0  0  2  0  0  0  0  0  0  0  0  0
   26.7054    9.4745    3.9906 N   0  0  0  0  0  0  0  0  0  0  0  0
   27.9802    7.3537   12.0448 O   0  0  0  0  0  0  0  0  0  0  0  0
   24.8430    7.9041    3.2937 C   0  0  2  0  0  0  0  0  0  0  0  0
   28.3525    3.8597   15.6364 N   0  0  0  0  0  0  0  0  0  0  0  0
   24.5298    6.5542    2.6293 C   0  0  2  0  0  0  0  0  0  0  0  0
   25.2538    5.3518    3.3707 C   0  0  2  0  0  0  0  0  0  0  0  0
   26.7502    5.6659    3.4189 O   0  0  0  0  0  0  0  0  0  0  0  0
   24.9771    3.9955    2.6596 C   0  0  0  0  0  0  0  0  0  0  0  0
   25.5497    2.8759    3.3174 N   0  0  0  0  0  0  0  0  0  0  0  0
   28.3727    6.2965    9.3610 C   0  0  2  0  0  0  0  0  0  0  0  0
   28.7930    5.5712   10.5956 N   0  0  0  0  0  0  0  0  0  0  0  0
   26.8824    5.8105    9.0155 C   0  0  0  0  0  0  0  0  0  0  0  0
   26.3481    6.5490    7.7320 C   0  0  2  0  0  0  0  0  0  0  0  0
   24.9905    6.0972    7.3933 N   0  0  0  0  0  0  0  0  0  0  0  0
   27.2673    6.2605    6.5284 C   0  0  2  0  0  0  0  0  0  0  0  0
   28.7477    6.7246    6.8381 C   0  0  2  0  0  0  0  0  0  0  0  0
   29.5398    6.4145    5.6315 O   0  0  0  0  0  0  0  0  0  0  0  0
   29.2940    5.9063    8.1161 C   0  0  1  0  0  0  0  0  0  0  0  0
   30.5990    6.3227    8.3674 O   0  0  0  0  0  0  0  0  0  0  0  0
   30.4697    7.1372    5.1064 C   0  0  1  0  0  0  0  0  0  0  0  0
   31.7643    7.2946    5.9573 C   0  0  2  0  0  0  0  0  0  0  0  0
   31.6238    8.4287    6.7534 O   0  0  0  0  0  0  0  0  0  0  0  0
   32.7216    7.5157    4.8607 C   0  0  1  0  0  0  0  0  0  0  0  0
   32.3288    6.5794    3.6764 C   0  0  2  0  0  0  0  0  0  0  0  0
   30.9311    6.6868    3.7911 O   0  0  0  0  0  0  0  0  0  0  0  0
   32.9327    5.1749    3.6341 C   0  0  0  0  0  0  0  0  0  0  0  0
   32.0671    4.3954    2.8306 O   0  0  0  0  0  0  0  0  0  0  0  0
   33.3855    9.4190    3.4606 C   0  0  2  0  0  0  0  0  0  0  0  0
   32.6312    8.9689    4.5057 O   0  0  0  0  0  0  0  0  0  0  0  0
   33.3172   10.9109    3.3168 C   0  0  1  0  0  0  0  0  0  0  0  0
   34.2679    8.6687   -1.6262 N   0  0  0  0  0  0  0  0  0  0  0  0
   30.4393    5.1773   13.0895 O   0  0  0  0  0  0  0  0  0  0  0  0
   34.1672   11.3551    2.0637 C   0  0  2  0  0  0  0  0  0  0  0  0
   33.7207   10.6705    0.7255 C   0  0  1  0  0  0  0  0  0  0  0  0
   33.8041    9.2377    0.8852 C   0  0  1  0  0  0  0  0  0  0  0  0
   32.9945    8.7844    2.0852 O   0  0  0  0  0  0  0  0  0  0  0  0
   33.3170    8.4991   -0.4378 C   0  0  0  0  0  0  0  0  0  0  0  0
   31.9835   11.3149    3.1058 N   0  0  0  0  0  0  0  0  0  0  0  0
   24.3391    8.7413    2.7009 O   0  0  0  0  0  0  0  0  0  0  0  0
   28.6618    5.9810   14.2533 C   0  0  0  0  0  0  0  0  0  0  0  0
   32.6289   10.9586    0.5189 O   0  0  0  0  0  0  0  0  0  0  0  0
   35.2604   11.0463    2.2448 O   0  0  0  0  0  0  0  0  0  0  0  0
   28.5256    6.2497   11.9060 C   0  0  0  0  0  0  0  0  0  0  0  0
   28.8760    5.1405   15.3228 C   0  0  0  0  0  0  0  0  0  0  0  0
   29.0235    5.3379   13.1438 C   0  0  1  0  0  0  0  0  0  0  0  0
   24.9617    6.5674    1.2912 F   0  0  0  0  0  0  0  0  0  0  0  0
  1  2  1  1  0  0  0
  1 10  1  0  0  0  0
  1  3  1  0  0  0  0
  3  4  1  1  0  0  0
  3  6  1  0  0  0  0
  5 46  2  0  0  0  0
  6 42  1  6  0  0  0
  6  8  1  0  0  0  0
  7 47  1  0  0  0  0
  8  9  1  0  0  0  0
  8 49  1  6  0  0  0
  9 10  1  0  0  0  0
  9 11  1  6  0  0  0
 11 12  1  0  0  0  0
 13 14  1  1  0  0  0
 13 15  1  0  0  0  0
 13 21  1  0  0  0  0
 14 46  1  0  0  0  0
 15 16  1  0  0  0  0
 16 17  1  6  0  0  0
 16 18  1  0  0  0  0
 18  2  1  6  0  0  0
 18 19  1  0  0  0  0
 19 20  1  6  0  0  0
 19 21  1  0  0  0  0
 21 22  1  1  0  0  0
 23 20  1  1  0  0  0
 23 24  1  0  0  0  0
 23 28  1  0  0  0  0
 24 25  1  1  0  0  0
 24 26  1  0  0  0  0
 26 27  1  0  0  0  0
 26 32  1  6  0  0  0
 27 28  1  0  0  0  0
 27 29  1  1  0  0  0
 29 30  1  0  0  0  0
 31 32  1  1  0  0  0
 31 33  1  0  0  0  0
 31 39  1  0  0  0  0
 33 36  1  0  0  0  0
 33 41  1  6  0  0  0
 34 40  1  0  0  0  0
 35 48  1  0  0  0  0
 36 37  1  0  0  0  0
 36 45  1  1  0  0  0
 37 38  1  0  0  0  0
 37 44  1  1  0  0  0
 38 39  1  0  0  0  0
 38 40  1  6  0  0  0
 43 47  1  0  0  0  0
 46 48  1  0  0  0  0
 48 43  1  1  0  0  0
M  END
>  <CHROM.1>
-167.32295588,-176.28806170,-177.19250964,-91.82023284,140.41544012,66.85094328
-176.97919434,157.81637728,-173.51314107,69.40078991,-59.73659574,-70.01028677
-116.81928226,29.53096200,7.21182589,5.50663967,1.16187247,-0.33168923,-1.36801873

>  <Name>
ligand

>  <RI>
0

>  <Rbt.Current_Directory>
/home/itssahil/PROJECTS/Mol_Feturizer/New_Systems/rnas/4PDQ

>  <Rbt.Executable>
rbdock ($Id: //depot/dev/client3/rdock/2013.1/src/exe/rbdock.cxx#4 $)

>  <Rbt.Library>
libRbt.so (2013.1, Build901 2013/11/27)

>  <Rbt.Parameter_File>
/export/apps/rDock/src/rDock_2013.1_src/data/scripts/dock_solv.prm

>  <Rbt.Receptor>
prm/pocket_docking_8.prm

>  <SCORE>
-12.4135

>  <SCORE.INTER>
-2.16047

>  <SCORE.INTER.CONST>
1

>  <SCORE.INTER.POLAR>
0

>  <SCORE.INTER.ROT>
13

>  <SCORE.INTER.SOLV>
15.9102

>  <SCORE.INTER.VDW>
-19.0104

>  <SCORE.INTER.norm>
-0.0440912

>  <SCORE.INTRA>
-10.253

>  <SCORE.INTRA.DIHEDRAL>
-24.0473

>  <SCORE.INTRA.DIHEDRAL.0>
34.5115

>  <SCORE.INTRA.POLAR>
0

>  <SCORE.INTRA.POLAR.0>
0

>  <SCORE.INTRA.REPUL>
0

>  <SCORE.INTRA.REPUL.0>
0

>  <SCORE.INTRA.SOLV>
-3.60662

>  <SCORE.INTRA.SOLV.lig_0>
-122.812

>  <SCORE.INTRA.VDW>
3.57397

>  <SCORE.INTRA.VDW.0>
-7.46208

>  <SCORE.INTRA.norm>
-0.209245

>  <SCORE.RESTR>
0

>  <SCORE.RESTR.CAVITY>
0

>  <SCORE.RESTR.norm>
0

>  <SCORE.SYSTEM>
0

>  <SCORE.SYSTEM.CONST>
0

>  <SCORE.SYSTEM.DIHEDRAL>
0

>  <SCORE.SYSTEM.SOLV>
0

>  <SCORE.SYSTEM.norm>
0

>  <SCORE.heavy>
49

>  <SCORE.norm>
-0.253336

>  <RMSD>
9.926

$$$$
ligand
 OpenBabel11021811513D
libRbt.so/2013.1/901 2013/11/27
 49 52  0  0  0  0  0  0  0  0999 V2000
   25.6175    8.0284   11.5245 C   0  0  2  0  0  0  0  0  0  0  0  0
   26.9409    8.4416   11.3518 O   0  0  0  0  0  0  0  0  0  0  0  0
   25.5875    6.6339   12.2536 C   0  0  2  0  0  0  0  0  0  0  0  0
   26.2832    6.7602   13.5999 N   0  0  0  0  0  0  0  0  0  0  0  0
   25.4263   13.1054    6.5067 O   0  0  0  0  0  0  0  0  0  0  0  0
   26.2543    5.5513   11.3732 C   0  0  2  0  0  0  0  0  0  0  0  0
   26.2920   18.4570    6.4381 N   0  0  0  0  0  0  0  0  0  0  0  0
   25.5472    5.4562   10.0121 C   0  0  2  0  0  0  0  0  0  0  0  0
   25.5557    6.8467    9.2465 C   0  0  2  0  0  0  0  0  0  0  0  0
   24.9371    7.8943   10.1740 O   0  0  0  0  0  0  0  0  0  0  0  0
   24.7899    6.7568    7.8948 C   0  0  0  0  0  0  0  0  0  0  0  0
   24.7337    7.9843    7.1849 N   0  0  0  0  0  0  0  0  0  0  0  0
   26.9970   11.7489    8.5481 C   0  0  2  0  0  0  0  0  0  0  0  0
   27.4287   13.0182    7.8926 N   0  0  0  0  0  0  0  0  0  0  0  0
   26.9726   12.0221   10.1296 C   0  0  0  0  0  0  0  0  0  0  0  0
   26.5012   10.7338   10.9018 C   0  0  2  0  0  0  0  0  0  0  0  0
   26.4940   10.9652   12.3538 N   0  0  0  0  0  0  0  0  0  0  0  0
   27.4510    9.5561   10.6053 C   0  0  2  0  0  0  0  0  0  0  0  0
   27.5016    9.2628    9.0515 C   0  0  2  0  0  0  0  0  0  0  0  0
   28.4241    8.1238    8.8750 O   0  0  0  0  0  0  0  0  0  0  0  0
   28.0493   10.5754    8.2908 C   0  0  1  0  0  0  0  0  0  0  0  0
   28.0938   10.2948    6.9274 O   0  0  0  0  0  0  0  0  0  0  0  0
   28.7808    7.5790    7.7620 C   0  0  1  0  0  0  0  0  0  0  0  0
   29.8731    6.4746    7.8703 C   0  0  2  0  0  0  0  0  0  0  0  0
   31.1184    7.0820    7.7286 O   0  0  0  0  0  0  0  0  0  0  0  0
   29.5117    5.6913    6.6771 C   0  0  1  0  0  0  0  0  0  0  0  0
   27.9555    5.6486    6.5766 C   0  0  2  0  0  0  0  0  0  0  0  0
   27.6913    6.9635    7.0005 O   0  0  0  0  0  0  0  0  0  0  0  0
   27.2163    4.5117    7.2837 C   0  0  0  0  0  0  0  0  0  0  0  0
   27.7105    3.3094    6.7242 O   0  0  0  0  0  0  0  0  0  0  0  0
   30.0923    5.7608    4.2935 C   0  0  2  0  0  0  0  0  0  0  0  0
   30.1496    6.3800    5.5088 O   0  0  0  0  0  0  0  0  0  0  0  0
   30.9903    6.4141    3.2845 C   0  0  1  0  0  0  0  0  0  0  0  0
   26.3952    6.4002    1.7031 N   0  0  0  0  0  0  0  0  0  0  0  0
   27.3407   14.8204    4.8508 O   0  0  0  0  0  0  0  0  0  0  0  0
   30.8358    5.6820    1.8952 C   0  0  2  0  0  0  0  0  0  0  0  0
   29.3629    5.6552    1.3581 C   0  0  1  0  0  0  0  0  0  0  0  0
   28.5208    5.0141    2.3406 C   0  0  1  0  0  0  0  0  0  0  0  0
   28.6514    5.6998    3.6874 O   0  0  0  0  0  0  0  0  0  0  0  0
   27.0050    5.0038    1.8554 C   0  0  0  0  0  0  0  0  0  0  0  0
   30.6208    7.7631    3.1113 N   0  0  0  0  0  0  0  0  0  0  0  0
   26.1837    4.5423   11.9054 O   0  0  0  0  0  0  0  0  0  0  0  0
   26.1929   15.9081    6.4815 C   0  0  0  0  0  0  0  0  0  0  0  0
   29.0102    6.7383    1.2162 O   0  0  0  0  0  0  0  0  0  0  0  0
   31.1591    4.5863    2.0298 O   0  0  0  0  0  0  0  0  0  0  0  0
   26.5109   13.5930    6.8552 C   0  0  0  0  0  0  0  0  0  0  0  0
   26.7798   17.1355    6.2692 C   0  0  0  0  0  0  0  0  0  0  0  0
   27.1076   14.9674    6.2499 C   0  0  1  0  0  0  0  0  0  0  0  0
   24.2090    5.0644   10.1939 F   0  0  0  0  0  0  0  0  0  0  0  0
  1  2  1  6  0  0  0
  1 10  1  0  0  0  0
  1  3  1  0  0  0  0
  3  4  1  1  0  0  0
  3  6  1  0  0  0  0
  5 46  2  0  0  0  0
  6 42  1  1  0  0  0
  6  8  1  0  0  0  0
  7 47  1  0  0  0  0
  8  9  1  0  0  0  0
  8 49  1  1  0  0  0
  9 10  1  0  0  0  0
  9 11  1  6  0  0  0
 11 12  1  0  0  0  0
 13 14  1  6  0  0  0
 13 15  1  0  0  0  0
 13 21  1  0  0  0  0
 14 46  1  0  0  0  0
 15 16  1  0  0  0  0
 16 17  1  1  0  0  0
 16 18  1  0  0  0  0
 18  2  1  1  0  0  0
 18 19  1  0  0  0  0
 19 20  1  1  0  0  0
 19 21  1  0  0  0  0
 21 22  1  6  0  0  0
 23 20  1  1  0  0  0
 23 24  1  0  0  0  0
 23 28  1  0  0  0  0
 24 25  1  6  0  0  0
 24 26  1  0  0  0  0
 26 27  1  0  0  0  0
 26 32  1  6  0  0  0
 27 28  1  0  0  0  0
 27 29  1  1  0  0  0
 29 30  1  0  0  0  0
 31 32  1  1  0  0  0
 31 33  1  0  0  0  0
 31 39  1  0  0  0  0
 33 36  1  0  0  0  0
 33 41  1  6  0  0  0
 34 40  1  0  0  0  0
 35 48  1  0  0  0  0
 36 37  1  0  0  0  0
 36 45  1  1  0  0  0
 37 38  1  0  0  0  0
 37 44  1  1  0  0  0
 38 39  1  0  0  0  0
 38 40  1  6  0  0  0
 43 47  1  0  0  0  0
 46 48  1  0  0  0  0
 48 43  1  6  0  0  0
M  END
>  <CHROM.1>
171.77738435,42.03053932,178.31382158,-123.82493584,-178.16897401,174.48920121
172.61285973,-59.29096456,-168.70901706,-63.52732946,-176.15950338,-74.37731948
-62.54376069,27.51722338,8.37515903,7.21667739,2.44366482,1.19601128,-0.27885568

>  <Name>
ligand

>  <RI>
0

>  <Rbt.Current_Directory>
/home/itssahil/PROJECTS/Mol_Feturizer/New_Systems/rnas/4PDQ

>  <Rbt.Executable>
rbdock ($Id: //depot/dev/client3/rdock/2013.1/src/exe/rbdock.cxx#4 $)

>  <Rbt.Library>
libRbt.so (2013.1, Build901 2013/11/27)

>  <Rbt.Parameter_File>
/export/apps/rDock/src/rDock_2013.1_src/data/scripts/dock_solv.prm

>  <Rbt.Receptor>
prm/pocket_docking_8.prm

>  <SCORE>
-12.2319

>  <SCORE.INTER>
0.540547

>  <SCORE.INTER.CONST>
1

>  <SCORE.INTER.POLAR>
0

>  <SCORE.INTER.ROT>
13

>  <SCORE.INTER.SOLV>
13.2082

>  <SCORE.INTER.VDW>
-16.309

>  <SCORE.INTER.norm>
0.0110316

>  <SCORE.INTRA>
-12.7724

>  <SCORE.INTRA.DIHEDRAL>
-27.1319

>  <SCORE.INTRA.DIHEDRAL.0>
34.5115

>  <SCORE.INTRA.POLAR>
0

>  <SCORE.INTRA.POLAR.0>
0

>  <SCORE.INTRA.REPUL>
0

>  <SCORE.INTRA.REPUL.0>
0

>  <SCORE.INTRA.SOLV>
0.239613

>  <SCORE.INTRA.SOLV.lig_0>
-122.812

>  <SCORE.INTRA.VDW>
0.673746

>  <SCORE.INTRA.VDW.0>
-7.46208

>  <SCORE.INTRA.norm>
-0.260661

>  <SCORE.RESTR>
0

>  <SCORE.RESTR.CAVITY>
0

>  <SCORE.RESTR.norm>
0

>  <SCORE.SYSTEM>
0

>  <SCORE.SYSTEM.CONST>
0

>  <SCORE.SYSTEM.DIHEDRAL>
0

>  <SCORE.SYSTEM.SOLV>
0

>  <SCORE.SYSTEM.norm>
0

>  <SCORE.heavy>
49

>  <SCORE.norm>
-0.24963

>  <RMSD>
9.929

$$$$
ligand
 OpenBabel11021811513D
libRbt.so/2013.1/901 2013/11/27
 49 52  0  0  0  0  0  0  0  0999 V2000
   27.1319   15.2590    5.8397 C   0  0  2  0  0  0  0  0  0  0  0  0
   27.4984   15.6372    7.1337 O   0  0  0  0  0  0  0  0  0  0  0  0
   26.0653   16.2685    5.2735 C   0  0  2  0  0  0  0  0  0  0  0  0
   26.6578   17.6689    5.2686 N   0  0  0  0  0  0  0  0  0  0  0  0
   25.7357   11.2061   11.9621 O   0  0  0  0  0  0  0  0  0  0  0  0
   24.7676   16.2078    6.1127 C   0  0  2  0  0  0  0  0  0  0  0  0
   29.6932   10.1036   15.8091 N   0  0  0  0  0  0  0  0  0  0  0  0
   24.1991   14.7801    6.1190 C   0  0  2  0  0  0  0  0  0  0  0  0
   25.2490   13.7315    6.6828 C   0  0  2  0  0  0  0  0  0  0  0  0
   26.5310   13.8650    5.8588 O   0  0  0  0  0  0  0  0  0  0  0  0
   24.6869   12.2812    6.6343 C   0  0  0  0  0  0  0  0  0  0  0  0
   25.3760   11.3707    7.4771 N   0  0  0  0  0  0  0  0  0  0  0  0
   27.4521   12.2695    9.8649 C   0  0  2  0  0  0  0  0  0  0  0  0
   27.9249   11.2996   10.8959 N   0  0  0  0  0  0  0  0  0  0  0  0
   28.6397   12.4369    8.7982 C   0  0  0  0  0  0  0  0  0  0  0  0
   28.2137   13.4310    7.6543 C   0  0  2  0  0  0  0  0  0  0  0  0
   29.3015   13.6084    6.6810 N   0  0  0  0  0  0  0  0  0  0  0  0
   27.8672   14.8110    8.2478 C   0  0  2  0  0  0  0  0  0  0  0  0
   26.7005   14.6808    9.3084 C   0  0  2  0  0  0  0  0  0  0  0  0
   26.4406   16.0455    9.8077 O   0  0  0  0  0  0  0  0  0  0  0  0
   27.1864   13.7100   10.5013 C   0  0  1  0  0  0  0  0  0  0  0  0
   26.1502   13.6147   11.4269 O   0  0  0  0  0  0  0  0  0  0  0  0
   25.3551   16.7282    9.6720 C   0  0  1  0  0  0  0  0  0  0  0  0
   25.0408   17.7322   10.8199 C   0  0  2  0  0  0  0  0  0  0  0  0
   24.2598   17.0754   11.7678 O   0  0  0  0  0  0  0  0  0  0  0  0
   24.2530   18.7077   10.0482 C   0  0  1  0  0  0  0  0  0  0  0  0
   24.9134   18.8636    8.6436 C   0  0  2  0  0  0  0  0  0  0  0  0
   25.2746   17.5192    8.4418 O   0  0  0  0  0  0  0  0  0  0  0  0
   26.0002   19.9255    8.4695 C   0  0  0  0  0  0  0  0  0  0  0  0
   25.5109   21.0988    9.0911 O   0  0  0  0  0  0  0  0  0  0  0  0
   22.6555   17.0188    9.2613 C   0  0  2  0  0  0  0  0  0  0  0  0
   22.8582   18.1640    9.9762 O   0  0  0  0  0  0  0  0  0  0  0  0
   21.3174   17.0066    8.5828 C   0  0  1  0  0  0  0  0  0  0  0  0
   23.0883   11.8578    9.6486 N   0  0  0  0  0  0  0  0  0  0  0  0
   28.0257    8.6375   12.2447 O   0  0  0  0  0  0  0  0  0  0  0  0
   21.1299   15.6379    7.8202 C   0  0  2  0  0  0  0  0  0  0  0  0
   21.2698   14.3784    8.7437 C   0  0  1  0  0  0  0  0  0  0  0  0
   22.5674   14.4074    9.3770 C   0  0  1  0  0  0  0  0  0  0  0  0
   22.7729   15.7151   10.1178 O   0  0  0  0  0  0  0  0  0  0  0  0
   22.7366   13.1673   10.3602 C   0  0  0  0  0  0  0  0  0  0  0  0
   20.2895   17.1175    9.5407 N   0  0  0  0  0  0  0  0  0  0  0  0
   23.9961   16.9181    5.6582 O   0  0  0  0  0  0  0  0  0  0  0  0
   28.6003   10.4229   13.5261 C   0  0  0  0  0  0  0  0  0  0  0  0
   20.4592   14.4330    9.5546 O   0  0  0  0  0  0  0  0  0  0  0  0
   21.9546   15.5566    7.0224 O   0  0  0  0  0  0  0  0  0  0  0  0
   26.9208   10.8471   11.9137 C   0  0  0  0  0  0  0  0  0  0  0  0
   28.9365    9.7312   14.6682 C   0  0  0  0  0  0  0  0  0  0  0  0
   27.5776    9.7939   12.9485 C   0  0  1  0  0  0  0  0  0  0  0  0
   23.8553   14.3956    4.8108 F   0  0  0  0  0  0  0  0  0  0  0  0
  1  2  1  1  0  0  0
  1 10  1  0  0  0  0
  1  3  1  0  0  0  0
  3  4  1  1  0  0  0
  3  6  1  0  0  0  0
  5 46  2  0  0  0  0
  6 42  1  6  0  0  0
  6  8  1  0  0  0  0
  7 47  1  0  0  0  0
  8  9  1  0  0  0  0
  8 49  1  6  0  0  0
  9 10  1  0  0  0  0
  9 11  1  6  0  0  0
 11 12  1  0  0  0  0
 13 14  1  1  0  0  0
 13 15  1  0  0  0  0
 13 21  1  0  0  0  0
 14 46  1  0  0  0  0
 15 16  1  0  0  0  0
 16 17  1  6  0  0  0
 16 18  1  0  0  0  0
 18  2  1  6  0  0  0
 18 19  1  0  0  0  0
 19 20  1  1  0  0  0
 19 21  1  0  0  0  0
 21 22  1  1  0  0  0
 23 20  1  1  0  0  0
 23 24  1  0  0  0  0
 23 28  1  0  0  0  0
 24 25  1  1  0  0  0
 24 26  1  0  0  0  0
 26 27  1  0  0  0  0
 26 32  1  6  0  0  0
 27 28  1  0  0  0  0
 27 29  1  1  0  0  0
 29 30  1  0  0  0  0
 31 32  1  1  0  0  0
 31 33  1  0  0  0  0
 31 39  1  0  0  0  0
 33 36  1  0  0  0  0
 33 41  1  1  0  0  0
 34 40  1  0  0  0  0
 35 48  1  0  0  0  0
 36 37  1  0  0  0  0
 36 45  1  6  0  0  0
 37 38  1  0  0  0  0
 37 44  1  1  0  0  0
 38 39  1  0  0  0  0
 38 40  1  1  0  0  0
 43 47  1  0  0  0  0
 46 48  1  0  0  0  0
 48 43  1  6  0  0  0
M  END
>  <CHROM.1>
146.58543867,17.24221514,-161.65477497,-172.59277117,116.15774399,149.48782109
-66.79005540,-45.64322214,-145.98024401,79.50122097,-162.18581473,-77.98689659
117.89989131,25.30108364,14.65667953,9.08769880,-2.19013948,-0.61621085,2.15204533

>  <Name>
ligand

>  <RI>
0

>  <Rbt.Current_Directory>
/home/itssahil/PROJECTS/Mol_Feturizer/New_Systems/rnas/4PDQ

>  <Rbt.Executable>
rbdock ($Id: //depot/dev/client3/rdock/2013.1/src/exe/rbdock.cxx#4 $)

>  <Rbt.Library>
libRbt.so (2013.1, Build901 2013/11/27)

>  <Rbt.Parameter_File>
/export/apps/rDock/src/rDock_2013.1_src/data/scripts/dock_solv.prm

>  <Rbt.Receptor>
prm/blind_docking_80.prm

>  <SCORE>
14.7085

>  <SCORE.INTER>
2.06007

>  <SCORE.INTER.CONST>
1

>  <SCORE.INTER.POLAR>
0

>  <SCORE.INTER.ROT>
13

>  <SCORE.INTER.SOLV>
30.9447

>  <SCORE.INTER.VDW>
-21.2082

>  <SCORE.INTER.norm>
0.0420422

>  <SCORE.INTRA>
8.43538

>  <SCORE.INTRA.DIHEDRAL>
-2.93167

>  <SCORE.INTRA.DIHEDRAL.0>
34.5115

>  <SCORE.INTRA.POLAR>
0

>  <SCORE.INTRA.POLAR.0>
0

>  <SCORE.INTRA.REPUL>
0.171756

>  <SCORE.INTRA.REPUL.0>
0

>  <SCORE.INTRA.SOLV>
8.53349

>  <SCORE.INTRA.SOLV.lig_0>
-122.812

>  <SCORE.INTRA.VDW>
4.77569

>  <SCORE.INTRA.VDW.0>
-7.46208

>  <SCORE.INTRA.norm>
0.172151

>  <SCORE.RESTR>
4.2131

>  <SCORE.RESTR.CAVITY>
4.2131

>  <SCORE.RESTR.norm>
0.0859817

>  <SCORE.SYSTEM>
0

>  <SCORE.SYSTEM.CONST>
0

>  <SCORE.SYSTEM.DIHEDRAL>
0

>  <SCORE.SYSTEM.SOLV>
0

>  <SCORE.SYSTEM.norm>
0

>  <SCORE.heavy>
49

>  <SCORE.norm>
0.300174

>  <RMSD>
9.937

$$$$
ligand
 OpenBabel11021811513D
libRbt.so/2013.1/901 2013/11/27
 49 52  0  0  0  0  0  0  0  0999 V2000
   29.2563    7.2186    3.4968 C   0  0  2  0  0  0  0  0  0  0  0  0
   28.7445    6.3385    4.4536 O   0  0  0  0  0  0  0  0  0  0  0  0
   29.8873    6.4023    2.3082 C   0  0  2  0  0  0  0  0  0  0  0  0
   28.8190    5.5125    1.6921 N   0  0  0  0  0  0  0  0  0  0  0  0
   24.6551    7.8618    9.6802 O   0  0  0  0  0  0  0  0  0  0  0  0
   31.0945    5.5732    2.8052 C   0  0  2  0  0  0  0  0  0  0  0  0
   25.4687    5.0352   14.0841 N   0  0  0  0  0  0  0  0  0  0  0  0
   32.1505    6.4910    3.4409 C   0  0  2  0  0  0  0  0  0  0  0  0
   31.5496    7.3334    4.6446 C   0  0  2  0  0  0  0  0  0  0  0  0
   30.3296    8.0929    4.1199 O   0  0  0  0  0  0  0  0  0  0  0  0
   32.6093    8.3007    5.2472 C   0  0  0  0  0  0  0  0  0  0  0  0
   32.1695    8.9780    6.4141 N   0  0  0  0  0  0  0  0  0  0  0  0
   26.7888    6.4195    8.3229 C   0  0  2  0  0  0  0  0  0  0  0  0
   26.6253    6.4333    9.8062 N   0  0  0  0  0  0  0  0  0  0  0  0
   27.8698    5.2836    7.9802 C   0  0  0  0  0  0  0  0  0  0  0  0
   28.0863    5.1836    6.4242 C   0  0  2  0  0  0  0  0  0  0  0  0
   29.0900    4.1597    6.0985 N   0  0  0  0  0  0  0  0  0  0  0  0
   28.5758    6.5345    5.8653 C   0  0  2  0  0  0  0  0  0  0  0  0
   27.5330    7.6791    6.1902 C   0  0  2  0  0  0  0  0  0  0  0  0
   28.0861    8.9194    5.6114 O   0  0  0  0  0  0  0  0  0  0  0  0
   27.3790    7.8049    7.7907 C   0  0  1  0  0  0  0  0  0  0  0  0
   26.4644    8.8212    8.0559 O   0  0  0  0  0  0  0  0  0  0  0  0
   27.7456    9.4763    4.4993 C   0  0  1  0  0  0  0  0  0  0  0  0
   26.2194    9.7150    4.3031 C   0  0  2  0  0  0  0  0  0  0  0  0
   25.6853    8.5987    3.6641 O   0  0  0  0  0  0  0  0  0  0  0  0
   26.2936   10.8749    3.3992 C   0  0  1  0  0  0  0  0  0  0  0  0
   27.4652   11.7881    3.8753 C   0  0  2  0  0  0  0  0  0  0  0  0
   28.3701   10.7767    4.2449 O   0  0  0  0  0  0  0  0  0  0  0  0
   27.1600   12.8791    4.9027 C   0  0  0  0  0  0  0  0  0  0  0  0
   28.4047   13.4557    5.2500 O   0  0  0  0  0  0  0  0  0  0  0  0
   25.4073   10.0227    1.2751 C   0  0  2  0  0  0  0  0  0  0  0  0
   26.5094   10.3255    2.0215 O   0  0  0  0  0  0  0  0  0  0  0  0
   25.4621    8.6263    0.7289 C   0  0  1  0  0  0  0  0  0  0  0  0
   22.6350   11.5669   -2.8799 N   0  0  0  0  0  0  0  0  0  0  0  0
   25.3519    8.4432   12.5276 O   0  0  0  0  0  0  0  0  0  0  0  0
   24.1868    8.3627   -0.1623 C   0  0  2  0  0  0  0  0  0  0  0  0
   24.0171    9.3873   -1.3371 C   0  0  1  0  0  0  0  0  0  0  0  0
   23.9572   10.7210   -0.7866 C   0  0  1  0  0  0  0  0  0  0  0  0
   25.1735   10.9998    0.0759 O   0  0  0  0  0  0  0  0  0  0  0  0
   23.8289   11.7999   -1.9496 C   0  0  0  0  0  0  0  0  0  0  0  0
   26.6030    8.4702   -0.0837 N   0  0  0  0  0  0  0  0  0  0  0  0
   31.5593    5.0226    1.9180 O   0  0  0  0  0  0  0  0  0  0  0  0
   24.3382    6.4269   12.2692 C   0  0  0  0  0  0  0  0  0  0  0  0
   24.9357    9.3084   -2.0209 O   0  0  0  0  0  0  0  0  0  0  0  0
   23.2557    8.4672    0.5051 O   0  0  0  0  0  0  0  0  0  0  0  0
   25.4776    7.2269   10.3556 C   0  0  0  0  0  0  0  0  0  0  0  0
   24.4992    5.9149   13.5373 C   0  0  0  0  0  0  0  0  0  0  0  0
   25.4268    7.1337   11.9681 C   0  0  1  0  0  0  0  0  0  0  0  0
   32.6439    7.3910    2.4797 F   0  0  0  0  0  0  0  0  0  0  0  0
  1  2  1  1  0  0  0
  1 10  1  0  0  0  0
  1  3  1  0  0  0  0
  3  4  1  1  0  0  0
  3  6  1  0  0  0  0
  5 46  2  0  0  0  0
  6 42  1  6  0  0  0
  6  8  1  0  0  0  0
  7 47  1  0  0  0  0
  8  9  1  0  0  0  0
  8 49  1  6  0  0  0
  9 10  1  0  0  0  0
  9 11  1  6  0  0  0
 11 12  1  0  0  0  0
 13 14  1  1  0  0  0
 13 15  1  0  0  0  0
 13 21  1  0  0  0  0
 14 46  1  0  0  0  0
 15 16  1  0  0  0  0
 16 17  1  1  0  0  0
 16 18  1  0  0  0  0
 18  2  1  6  0  0  0
 18 19  1  0  0  0  0
 19 20  1  1  0  0  0
 19 21  1  0  0  0  0
 21 22  1  6  0  0  0
 23 20  1  1  0  0  0
 23 24  1  0  0  0  0
 23 28  1  0  0  0  0
 24 25  1  6  0  0  0
 24 26  1  0  0  0  0
 26 27  1  0  0  0  0
 26 32  1  6  0  0  0
 27 28  1  0  0  0  0
 27 29  1  1  0  0  0
 29 30  1  0  0  0  0
 31 32  1  6  0  0  0
 31 33  1  0  0  0  0
 31 39  1  0  0  0  0
 33 36  1  0  0  0  0
 33 41  1  6  0  0  0
 34 40  1  0  0  0  0
 35 48  1  0  0  0  0
 36 37  1  0  0  0  0
 36 45  1  1  0  0  0
 37 38  1  0  0  0  0
 37 44  1  6  0  0  0
 38 39  1  0  0  0  0
 38 40  1  6  0  0  0
 43 47  1  0  0  0  0
 46 48  1  0  0  0  0
 48 43  1  6  0  0  0
M  END
>  <CHROM.1>
152.49975369,-175.10034986,-173.80459434,-168.58280025,100.56568159,51.28141494
89.19277858,174.29239537,-128.07892349,55.81931605,-60.60152962,-81.97597257
-52.29299470,27.28923284,8.26449697,4.64940400,-1.64609699,-0.40930065,1.82194117

>  <Name>
ligand

>  <RI>
0

>  <Rbt.Current_Directory>
/home/itssahil/PROJECTS/Mol_Feturizer/New_Systems/rnas/4PDQ

>  <Rbt.Executable>
rbdock ($Id: //depot/dev/client3/rdock/2013.1/src/exe/rbdock.cxx#4 $)

>  <Rbt.Library>
libRbt.so (2013.1, Build901 2013/11/27)

>  <Rbt.Parameter_File>
/export/apps/rDock/src/rDock_2013.1_src/data/scripts/dock_solv.prm

>  <Rbt.Receptor>
prm/pocket_docking_6.prm

>  <SCORE>
-7.09316

>  <SCORE.INTER>
-3.05562

>  <SCORE.INTER.CONST>
1

>  <SCORE.INTER.POLAR>
0

>  <SCORE.INTER.ROT>
13

>  <SCORE.INTER.SOLV>
21.2597

>  <SCORE.INTER.VDW>
-21.3903

>  <SCORE.INTER.norm>
-0.0623596

>  <SCORE.INTRA>
-4.03754

>  <SCORE.INTRA.DIHEDRAL>
-10.7091

>  <SCORE.INTRA.DIHEDRAL.0>
34.5115

>  <SCORE.INTRA.POLAR>
0

>  <SCORE.INTRA.POLAR.0>
0

>  <SCORE.INTRA.REPUL>
0

>  <SCORE.INTRA.REPUL.0>
0

>  <SCORE.INTRA.SOLV>
-1.88284

>  <SCORE.INTRA.SOLV.lig_0>
-122.812

>  <SCORE.INTRA.VDW>
2.25844

>  <SCORE.INTRA.VDW.0>
-7.46208

>  <SCORE.INTRA.norm>
-0.0823987

>  <SCORE.RESTR>
0

>  <SCORE.RESTR.CAVITY>
0

>  <SCORE.RESTR.norm>
0

>  <SCORE.SYSTEM>
0

>  <SCORE.SYSTEM.CONST>
0

>  <SCORE.SYSTEM.DIHEDRAL>
0

>  <SCORE.SYSTEM.SOLV>
0

>  <SCORE.SYSTEM.norm>
0

>  <SCORE.heavy>
49

>  <SCORE.norm>
-0.144758

>  <RMSD>
9.984

$$$$
ligand
 OpenBabel11021811513D
libRbt.so/2013.1/901 2013/11/27
 49 52  0  0  0  0  0  0  0  0999 V2000
   27.4548   14.1059    6.5902 C   0  0  2  0  0  0  0  0  0  0  0  0
   27.0555   14.3381    7.9088 O   0  0  0  0  0  0  0  0  0  0  0  0
   27.0543   15.3333    5.6902 C   0  0  2  0  0  0  0  0  0  0  0  0
   27.7209   16.5878    6.2327 N   0  0  0  0  0  0  0  0  0  0  0  0
   28.4437    8.5723   10.4302 O   0  0  0  0  0  0  0  0  0  0  0  0
   25.5161   15.4872    5.6426 C   0  0  2  0  0  0  0  0  0  0  0  0
   27.4924   10.1841   14.6506 N   0  0  0  0  0  0  0  0  0  0  0  0
   24.8645   14.2012    5.1105 C   0  0  2  0  0  0  0  0  0  0  0  0
   25.2477   12.9389    5.9932 C   0  0  2  0  0  0  0  0  0  0  0  0
   26.7741   12.8586    6.0556 O   0  0  0  0  0  0  0  0  0  0  0  0
   24.6298   11.6323    5.4165 C   0  0  0  0  0  0  0  0  0  0  0  0
   25.3184   11.1233    4.2848 N   0  0  0  0  0  0  0  0  0  0  0  0
   26.3551   10.5004    9.8020 C   0  0  2  0  0  0  0  0  0  0  0  0
   26.2262    9.4768   10.8802 N   0  0  0  0  0  0  0  0  0  0  0  0
   27.7091   11.3140   10.0866 C   0  0  0  0  0  0  0  0  0  0  0  0
   27.9373   12.4055    8.9753 C   0  0  2  0  0  0  0  0  0  0  0  0
   29.1649   13.1716    9.2362 N   0  0  0  0  0  0  0  0  0  0  0  0
   26.7514   13.3902    8.9426 C   0  0  2  0  0  0  0  0  0  0  0  0
   25.3980   12.6185    8.6678 C   0  0  2  0  0  0  0  0  0  0  0  0
   24.3344   13.6421    8.6483 O   0  0  0  0  0  0  0  0  0  0  0  0
   25.1552   11.5531    9.8542 C   0  0  1  0  0  0  0  0  0  0  0  0
   23.9571   10.8908    9.5986 O   0  0  0  0  0  0  0  0  0  0  0  0
   24.0441   14.4779    9.5864 C   0  0  1  0  0  0  0  0  0  0  0  0
   22.6422   14.2991   10.2402 C   0  0  2  0  0  0  0  0  0  0  0  0
   21.7346   15.0918    9.5418 O   0  0  0  0  0  0  0  0  0  0  0  0
   22.9460   14.8608   11.5669 C   0  0  1  0  0  0  0  0  0  0  0  0
   24.3804   14.4013   11.9725 C   0  0  2  0  0  0  0  0  0  0  0  0
   24.9870   14.4978   10.7072 O   0  0  0  0  0  0  0  0  0  0  0  0
   24.5291   13.0830   12.7334 C   0  0  0  0  0  0  0  0  0  0  0  0
   25.8644   13.0434   13.2004 O   0  0  0  0  0  0  0  0  0  0  0  0
   23.9390   17.0440   11.0462 C   0  0  2  0  0  0  0  0  0  0  0  0
   22.8297   16.3491   11.4337 O   0  0  0  0  0  0  0  0  0  0  0  0
   23.9413   18.4463   11.5797 C   0  0  1  0  0  0  0  0  0  0  0  0
   24.2740   18.6047    6.7289 N   0  0  0  0  0  0  0  0  0  0  0  0
   28.3219    6.8900   12.6874 O   0  0  0  0  0  0  0  0  0  0  0  0
   25.2210   19.2045   11.0528 C   0  0  2  0  0  0  0  0  0  0  0  0
   25.3384   19.2298    9.4893 C   0  0  1  0  0  0  0  0  0  0  0  0
   25.3441   17.8708    9.0009 C   0  0  1  0  0  0  0  0  0  0  0  0
   24.1224   17.1190    9.4944 O   0  0  0  0  0  0  0  0  0  0  0  0
   25.4179   17.8491    7.4112 C   0  0  0  0  0  0  0  0  0  0  0  0
   22.8030   19.1392   11.1209 N   0  0  0  0  0  0  0  0  0  0  0  0
   25.2497   16.3579    4.9518 O   0  0  0  0  0  0  0  0  0  0  0  0
   26.5871    8.2298   13.2833 C   0  0  0  0  0  0  0  0  0  0  0  0
   24.4197   19.7729    9.0667 O   0  0  0  0  0  0  0  0  0  0  0  0
   26.1510   18.6531   11.4457 O   0  0  0  0  0  0  0  0  0  0  0  0
   27.3886    8.5506   11.0798 C   0  0  0  0  0  0  0  0  0  0  0  0
   27.4940    9.2099   13.6192 C   0  0  0  0  0  0  0  0  0  0  0  0
   27.1039    7.5133   12.2858 C   0  0  1  0  0  0  0  0  0  0  0  0
   25.2895   13.9591    3.7921 F   0  0  0  0  0  0  0  0  0  0  0  0
  1  2  1  1  0  0  0
  1 10  1  0  0  0  0
  1  3  1  0  0  0  0
  3  4  1  1  0  0  0
  3  6  1  0  0  0  0
  5 46  2  0  0  0  0
  6 42  1  6  0  0  0
  6  8  1  0  0  0  0
  7 47  1  0  0  0  0
  8  9  1  0  0  0  0
  8 49  1  6  0  0  0
  9 10  1  0  0  0  0
  9 11  1  6  0  0  0
 11 12  1  0  0  0  0
 13 14  1  1  0  0  0
 13 15  1  0  0  0  0
 13 21  1  0  0  0  0
 14 46  1  0  0  0  0
 15 16  1  0  0  0  0
 16 17  1  1  0  0  0
 16 18  1  0  0  0  0
 18  2  1  6  0  0  0
 18 19  1  0  0  0  0
 19 20  1  1  0  0  0
 19 21  1  0  0  0  0
 21 22  1  6  0  0  0
 23 20  1  6  0  0  0
 23 24  1  0  0  0  0
 23 28  1  0  0  0  0
 24 25  1  6  0  0  0
 24 26  1  0  0  0  0
 26 27  1  0  0  0  0
 26 32  1  6  0  0  0
 27 28  1  0  0  0  0
 27 29  1  6  0  0  0
 29 30  1  0  0  0  0
 31 32  1  6  0  0  0
 31 33  1  0  0  0  0
 31 39  1  0  0  0  0
 33 36  1  0  0  0  0
 33 41  1  6  0  0  0
 34 40  1  0  0  0  0
 35 48  1  0  0  0  0
 36 37  1  0  0  0  0
 36 45  1  1  0  0  0
 37 38  1  0  0  0  0
 37 44  1  6  0  0  0
 38 39  1  0  0  0  0
 38 40  1  6  0  0  0
 43 47  1  0  0  0  0
 46 48  1  0  0  0  0
 48 43  1  1  0  0  0
M  END
>  <CHROM.1>
154.67363137,50.08490789,77.18129938,-54.35442860,-56.88703446,-114.84684545
-88.22890649,-168.62488970,-151.61116733,-57.67145087,-175.61554585,61.03862804
14.17151794,25.55884655,13.88789636,9.33658685,-2.47038124,-1.22962089,1.90138802

>  <Name>
ligand

>  <RI>
0

>  <Rbt.Current_Directory>
/home/itssahil/PROJECTS/Mol_Feturizer/New_Systems/rnas/4PDQ

>  <Rbt.Executable>
rbdock ($Id: //depot/dev/client3/rdock/2013.1/src/exe/rbdock.cxx#4 $)

>  <Rbt.Library>
libRbt.so (2013.1, Build901 2013/11/27)

>  <Rbt.Parameter_File>
/export/apps/rDock/src/rDock_2013.1_src/data/scripts/dock_solv.prm

>  <Rbt.Receptor>
prm/blind_docking_80.prm

>  <SCORE>
24.3137

>  <SCORE.INTER>
14.1539

>  <SCORE.INTER.CONST>
1

>  <SCORE.INTER.POLAR>
0

>  <SCORE.INTER.ROT>
13

>  <SCORE.INTER.SOLV>
30.8204

>  <SCORE.INTER.VDW>
-13.1042

>  <SCORE.INTER.norm>
0.288855

>  <SCORE.INTRA>
6.48148

>  <SCORE.INTRA.DIHEDRAL>
-15.0155

>  <SCORE.INTRA.DIHEDRAL.0>
34.5115

>  <SCORE.INTRA.POLAR>
0

>  <SCORE.INTRA.POLAR.0>
0

>  <SCORE.INTRA.REPUL>
0

>  <SCORE.INTRA.REPUL.0>
0

>  <SCORE.INTRA.SOLV>
6.36973

>  <SCORE.INTRA.SOLV.lig_0>
-122.812

>  <SCORE.INTRA.VDW>
10.8044

>  <SCORE.INTRA.VDW.0>
-7.46208

>  <SCORE.INTRA.norm>
0.132275

>  <SCORE.RESTR>
3.67835

>  <SCORE.RESTR.CAVITY>
3.67835

>  <SCORE.RESTR.norm>
0.0750684

>  <SCORE.SYSTEM>
0

>  <SCORE.SYSTEM.CONST>
0

>  <SCORE.SYSTEM.DIHEDRAL>
0

>  <SCORE.SYSTEM.SOLV>
0

>  <SCORE.SYSTEM.norm>
0

>  <SCORE.heavy>
49

>  <SCORE.norm>
0.496198

>  <RMSD>
9.989

$$$$
ligand
 OpenBabel11021811513D
libRbt.so/2013.1/901 2013/11/27
 49 52  0  0  0  0  0  0  0  0999 V2000
   22.3110   16.6097    8.3485 C   0  0  2  0  0  0  0  0  0  0  0  0
   22.9114   15.3492    8.2970 O   0  0  0  0  0  0  0  0  0  0  0  0
   21.7135   16.9711    6.9380 C   0  0  2  0  0  0  0  0  0  0  0  0
   20.6939   15.9143    6.5430 N   0  0  0  0  0  0  0  0  0  0  0  0
   25.4525   11.7316   12.0241 O   0  0  0  0  0  0  0  0  0  0  0  0
   22.8429   17.0861    5.8879 C   0  0  2  0  0  0  0  0  0  0  0  0
   29.0684   10.9443   14.0478 N   0  0  0  0  0  0  0  0  0  0  0  0
   23.8702   18.1448    6.3184 C   0  0  2  0  0  0  0  0  0  0  0  0
   24.4945   17.8146    7.7400 C   0  0  2  0  0  0  0  0  0  0  0  0
   23.3404   17.6576    8.7319 O   0  0  0  0  0  0  0  0  0  0  0  0
   25.4919   18.9194    8.1941 C   0  0  0  0  0  0  0  0  0  0  0  0
   25.6737   18.9852    9.6000 N   0  0  0  0  0  0  0  0  0  0  0  0
   24.8258   14.5732   12.1096 C   0  0  2  0  0  0  0  0  0  0  0  0
   25.3390   13.8128   13.2866 N   0  0  0  0  0  0  0  0  0  0  0  0
   23.3364   14.0472   11.8239 C   0  0  0  0  0  0  0  0  0  0  0  0
   22.7063   14.8187   10.6050 C   0  0  2  0  0  0  0  0  0  0  0  0
   21.3486   14.3315   10.3204 N   0  0  0  0  0  0  0  0  0  0  0  0
   23.5668   14.6155    9.3420 C   0  0  2  0  0  0  0  0  0  0  0  0
   25.0451   15.1209    9.5915 C   0  0  2  0  0  0  0  0  0  0  0  0
   25.7793   14.8914    8.3315 O   0  0  0  0  0  0  0  0  0  0  0  0
   25.6896   14.2703   10.8009 C   0  0  1  0  0  0  0  0  0  0  0  0
   26.9912   14.7240   10.9995 O   0  0  0  0  0  0  0  0  0  0  0  0
   26.0652   13.7539    7.7958 C   0  0  1  0  0  0  0  0  0  0  0  0
   25.0343   13.2173    6.7594 C   0  0  2  0  0  0  0  0  0  0  0  0
   24.1096   12.4272    7.4380 O   0  0  0  0  0  0  0  0  0  0  0  0
   25.9490   12.4029    5.9421 C   0  0  1  0  0  0  0  0  0  0  0  0
   27.2975   13.1751    5.8060 C   0  0  2  0  0  0  0  0  0  0  0  0
   27.3575   13.7044    7.1078 O   0  0  0  0  0  0  0  0  0  0  0  0
   27.4597   14.1461    4.6356 C   0  0  0  0  0  0  0  0  0  0  0  0
   27.6337   13.3482    3.4799 O   0  0  0  0  0  0  0  0  0  0  0  0
   26.3201   11.1191    8.0007 C   0  0  2  0  0  0  0  0  0  0  0  0
   26.1003   11.0925    6.6536 O   0  0  0  0  0  0  0  0  0  0  0  0
   27.7761   11.2654    8.3319 C   0  0  1  0  0  0  0  0  0  0  0  0
   25.5065    8.4301   12.4094 N   0  0  0  0  0  0  0  0  0  0  0  0
   25.1385   11.6265   15.4224 O   0  0  0  0  0  0  0  0  0  0  0  0
   27.9616   11.2373    9.8988 C   0  0  2  0  0  0  0  0  0  0  0  0
   27.3887    9.9449   10.5773 C   0  0  1  0  0  0  0  0  0  0  0  0
   25.9862    9.8314   10.2526 C   0  0  1  0  0  0  0  0  0  0  0  0
   25.7805    9.8563    8.7498 O   0  0  0  0  0  0  0  0  0  0  0  0
   25.3718    8.5068   10.8860 C   0  0  0  0  0  0  0  0  0  0  0  0
   28.5058   10.1902    7.7861 N   0  0  0  0  0  0  0  0  0  0  0  0
   22.3889   17.3886    4.8836 O   0  0  0  0  0  0  0  0  0  0  0  0
   26.5673   10.4450   14.1100 C   0  0  0  0  0  0  0  0  0  0  0  0
   27.9440    9.0358   10.1499 O   0  0  0  0  0  0  0  0  0  0  0  0
   27.3854   12.1279   10.3436 O   0  0  0  0  0  0  0  0  0  0  0  0
   25.6113   12.3519   13.0851 C   0  0  0  0  0  0  0  0  0  0  0  0
   27.8117   10.5397   13.5282 C   0  0  0  0  0  0  0  0  0  0  0  0
   26.1715   11.6736   14.4406 C   0  0  1  0  0  0  0  0  0  0  0  0
   23.2547   19.4069    6.3928 F   0  0  0  0  0  0  0  0  0  0  0  0
  1  2  1  6  0  0  0
  1 10  1  0  0  0  0
  1  3  1  0  0  0  0
  3  4  1  6  0  0  0
  3  6  1  0  0  0  0
  5 46  2  0  0  0  0
  6 42  1  6  0  0  0
  6  8  1  0  0  0  0
  7 47  1  0  0  0  0
  8  9  1  0  0  0  0
  8 49  1  1  0  0  0
  9 10  1  0  0  0  0
  9 11  1  1  0  0  0
 11 12  1  0  0  0  0
 13 14  1  1  0  0  0
 13 15  1  0  0  0  0
 13 21  1  0  0  0  0
 14 46  1  0  0  0  0
 15 16  1  0  0  0  0
 16 17  1  6  0  0  0
 16 18  1  0  0  0  0
 18  2  1  6  0  0  0
 18 19  1  0  0  0  0
 19 20  1  6  0  0  0
 19 21  1  0  0  0  0
 21 22  1  1  0  0  0
 23 20  1  6  0  0  0
 23 24  1  0  0  0  0
 23 28  1  0  0  0  0
 24 25  1  1  0  0  0
 24 26  1  0  0  0  0
 26 27  1  0  0  0  0
 26 32  1  1  0  0  0
 27 28  1  0  0  0  0
 27 29  1  6  0  0  0
 29 30  1  0  0  0  0
 31 32  1  6  0  0  0
 31 33  1  0  0  0  0
 31 39  1  0  0  0  0
 33 36  1  0  0  0  0
 33 41  1  6  0  0  0
 34 40  1  0  0  0  0
 35 48  1  0  0  0  0
 36 37  1  0  0  0  0
 36 45  1  1  0  0  0
 37 38  1  0  0  0  0
 37 44  1  6  0  0  0
 38 39  1  0  0  0  0
 38 40  1  6  0  0  0
 43 47  1  0  0  0  0
 46 48  1  0  0  0  0
 48 43  1  6  0  0  0
M  END
>  <CHROM.1>
-179.33649248,41.16431138,156.40299125,68.88638103,-66.22935503,92.49318672
-45.82881003,-73.94601870,-85.91902454,58.56647894,65.27121252,-160.50965212
-111.88232866,25.35418079,13.56478573,9.24269901,2.26584971,0.98786165,-1.28049338

>  <Name>
ligand

>  <RI>
0

>  <Rbt.Current_Directory>
/home/itssahil/PROJECTS/Mol_Feturizer/New_Systems/rnas/4PDQ

>  <Rbt.Executable>
rbdock ($Id: //depot/dev/client3/rdock/2013.1/src/exe/rbdock.cxx#4 $)

>  <Rbt.Library>
libRbt.so (2013.1, Build901 2013/11/27)

>  <Rbt.Parameter_File>
/export/apps/rDock/src/rDock_2013.1_src/data/scripts/dock_solv.prm

>  <Rbt.Receptor>
prm/blind_docking_40.prm

>  <SCORE>
16.0708

>  <SCORE.INTER>
9.50164

>  <SCORE.INTER.CONST>
1

>  <SCORE.INTER.POLAR>
0

>  <SCORE.INTER.ROT>
13

>  <SCORE.INTER.SOLV>
33.3349

>  <SCORE.INTER.VDW>
-17.0439

>  <SCORE.INTER.norm>
0.193911

>  <SCORE.INTRA>
0.988958

>  <SCORE.INTRA.DIHEDRAL>
-20.0813

>  <SCORE.INTRA.DIHEDRAL.0>
34.5115

>  <SCORE.INTRA.POLAR>
0

>  <SCORE.INTRA.POLAR.0>
0

>  <SCORE.INTRA.REPUL>
0

>  <SCORE.INTRA.REPUL.0>
0

>  <SCORE.INTRA.SOLV>
7.84898

>  <SCORE.INTRA.SOLV.lig_0>
-122.812

>  <SCORE.INTRA.VDW>
7.10514

>  <SCORE.INTRA.VDW.0>
-7.46208

>  <SCORE.INTRA.norm>
0.0201828

>  <SCORE.RESTR>
5.58016

>  <SCORE.RESTR.CAVITY>
5.58016

>  <SCORE.RESTR.norm>
0.113881

>  <SCORE.SYSTEM>
0

>  <SCORE.SYSTEM.CONST>
0

>  <SCORE.SYSTEM.DIHEDRAL>
0

>  <SCORE.SYSTEM.SOLV>
0

>  <SCORE.SYSTEM.norm>
0

>  <SCORE.heavy>
49

>  <SCORE.norm>
0.327975

>  <RMSD>
9.999

$$$$
ligand
 OpenBabel11021811513D
libRbt.so/2013.1/901 2013/11/27
 49 52  0  0  0  0  0  0  0  0999 V2000
   26.2013    6.0382    9.0289 C   0  0  2  0  0  0  0  0  0  0  0  0
   27.3843    6.5199    9.5949 O   0  0  0  0  0  0  0  0  0  0  0  0
   26.3465    4.5011    8.7232 C   0  0  2  0  0  0  0  0  0  0  0  0
   26.6543    3.7626   10.0163 N   0  0  0  0  0  0  0  0  0  0  0  0
   25.2639   12.8657    9.5162 O   0  0  0  0  0  0  0  0  0  0  0  0
   27.4468    4.2644    7.6625 C   0  0  2  0  0  0  0  0  0  0  0  0
   27.7814   16.3698   13.2789 N   0  0  0  0  0  0  0  0  0  0  0  0
   27.1240    5.0358    6.3732 C   0  0  2  0  0  0  0  0  0  0  0  0
   26.9681    6.5924    6.6426 C   0  0  2  0  0  0  0  0  0  0  0  0
   25.9107    6.7740    7.7331 O   0  0  0  0  0  0  0  0  0  0  0  0
   26.5866    7.3593    5.3434 C   0  0  0  0  0  0  0  0  0  0  0  0
   26.3949    8.7523    5.5352 N   0  0  0  0  0  0  0  0  0  0  0  0
   27.3622   10.8515    9.3954 C   0  0  2  0  0  0  0  0  0  0  0  0
   27.6112   12.2699    9.7870 N   0  0  0  0  0  0  0  0  0  0  0  0
   26.8151   10.0934   10.7001 C   0  0  0  0  0  0  0  0  0  0  0  0
   26.5012    8.5869   10.3682 C   0  0  2  0  0  0  0  0  0  0  0  0
   26.0180    7.8761   11.5612 N   0  0  0  0  0  0  0  0  0  0  0  0
   27.7725    7.8752    9.8640 C   0  0  2  0  0  0  0  0  0  0  0  0
   28.3411    8.6013    8.5786 C   0  0  2  0  0  0  0  0  0  0  0  0
   29.5427    7.8453    8.1736 O   0  0  0  0  0  0  0  0  0  0  0  0
   28.7155   10.1226    8.9621 C   0  0  1  0  0  0  0  0  0  0  0  0
   29.2208   10.7414    7.8213 O   0  0  0  0  0  0  0  0  0  0  0  0
   30.3205    8.0996    7.1770 C   0  0  1  0  0  0  0  0  0  0  0  0
   31.6289    7.2581    7.1097 C   0  0  2  0  0  0  0  0  0  0  0  0
   32.6252    7.9516    7.7925 O   0  0  0  0  0  0  0  0  0  0  0  0
   31.8401    7.2975    5.6530 C   0  0  1  0  0  0  0  0  0  0  0  0
   30.4501    7.1689    4.9567 C   0  0  2  0  0  0  0  0  0  0  0  0
   29.7017    7.9473    5.8581 O   0  0  0  0  0  0  0  0  0  0  0  0
   29.9330    5.7676    4.6282 C   0  0  0  0  0  0  0  0  0  0  0  0
   30.8456    5.2166    3.6976 O   0  0  0  0  0  0  0  0  0  0  0  0
   32.9889    8.8043    4.0931 C   0  0  2  0  0  0  0  0  0  0  0  0
   32.5180    8.6013    5.3582 O   0  0  0  0  0  0  0  0  0  0  0  0
   33.5467   10.1855    3.9136 C   0  0  1  0  0  0  0  0  0  0  0  0
   31.6549    8.4075   -0.9378 N   0  0  0  0  0  0  0  0  0  0  0  0
   25.8521   15.6142    9.8538 O   0  0  0  0  0  0  0  0  0  0  0  0
   34.0239   10.3670    2.4204 C   0  0  2  0  0  0  0  0  0  0  0  0
   32.8955   10.1072    1.3630 C   0  0  1  0  0  0  0  0  0  0  0  0
   32.3819    8.7704    1.5492 C   0  0  1  0  0  0  0  0  0  0  0  0
   31.9162    8.5698    2.9789 O   0  0  0  0  0  0  0  0  0  0  0  0
   31.2011    8.4780    0.5230 C   0  0  0  0  0  0  0  0  0  0  0  0
   32.5491   11.1465    4.1734 N   0  0  0  0  0  0  0  0  0  0  0  0
   27.5048    3.1472    7.4282 O   0  0  0  0  0  0  0  0  0  0  0  0
   26.9701   14.6487   11.5795 C   0  0  0  0  0  0  0  0  0  0  0  0
   32.0484   10.8598    1.5462 O   0  0  0  0  0  0  0  0  0  0  0  0
   34.8544    9.5983    2.2139 O   0  0  0  0  0  0  0  0  0  0  0  0
   26.4266   13.1894    9.7975 C   0  0  0  0  0  0  0  0  0  0  0  0
   27.5209   15.8429   11.9877 C   0  0  0  0  0  0  0  0  0  0  0  0
   26.8531   14.6802   10.2526 C   0  0  1  0  0  0  0  0  0  0  0  0
   25.9198    4.5640    5.8215 F   0  0  0  0  0  0  0  0  0  0  0  0
  1  2  1  6  0  0  0
  1 10  1  0  0  0  0
  1  3  1  0  0  0  0
  3  4  1  1  0  0  0
  3  6  1  0  0  0  0
  5 46  2  0  0  0  0
  6 42  1  6  0  0  0
  6  8  1  0  0  0  0
  7 47  1  0  0  0  0
  8  9  1  0  0  0  0
  8 49  1  1  0  0  0
  9 10  1  0  0  0  0
  9 11  1  6  0  0  0
 11 12  1  0  0  0  0
 13 14  1  1  0  0  0
 13 15  1  0  0  0  0
 13 21  1  0  0  0  0
 14 46  1  0  0  0  0
 15 16  1  0  0  0  0
 16 17  1  1  0  0  0
 16 18  1  0  0  0  0
 18  2  1  6  0  0  0
 18 19  1  0  0  0  0
 19 20  1  1  0  0  0
 19 21  1  0  0  0  0
 21 22  1  6  0  0  0
 23 20  1  1  0  0  0
 23 24  1  0  0  0  0
 23 28  1  0  0  0  0
 24 25  1  1  0  0  0
 24 26  1  0  0  0  0
 26 27  1  0  0  0  0
 26 32  1  1  0  0  0
 27 28  1  0  0  0  0
 27 29  1  1  0  0  0
 29 30  1  0  0  0  0
 31 32  1  1  0  0  0
 31 33  1  0  0  0  0
 31 39  1  0  0  0  0
 33 36  1  0  0  0  0
 33 41  1  6  0  0  0
 34 40  1  0  0  0  0
 35 48  1  0  0  0  0
 36 37  1  0  0  0  0
 36 45  1  6  0  0  0
 37 38  1  0  0  0  0
 37 44  1  1  0  0  0
 38 39  1  0  0  0  0
 38 40  1  6  0  0  0
 43 47  1  0  0  0  0
 46 48  1  0  0  0  0
 48 43  1  1  0  0  0
M  END
>  <CHROM.1>
170.66757944,39.06914520,178.21649336,-82.05973286,-179.47858410,171.42869676
171.29446982,-63.20713961,175.62809777,67.53202622,175.45132358,-69.26694314
-19.46570844,29.07669087,8.86612977,6.85646049,2.50707500,0.84987583,0.34632210

>  <Name>
ligand

>  <RI>
0

>  <Rbt.Current_Directory>
/home/itssahil/PROJECTS/Mol_Feturizer/New_Systems/rnas/4PDQ

>  <Rbt.Executable>
rbdock ($Id: //depot/dev/client3/rdock/2013.1/src/exe/rbdock.cxx#4 $)

>  <Rbt.Library>
libRbt.so (2013.1, Build901 2013/11/27)

>  <Rbt.Parameter_File>
/export/apps/rDock/src/rDock_2013.1_src/data/scripts/dock_solv.prm

>  <Rbt.Receptor>
prm/pocket_docking_8.prm

>  <SCORE>
-17.2441

>  <SCORE.INTER>
-2.62294

>  <SCORE.INTER.CONST>
1

>  <SCORE.INTER.POLAR>
0

>  <SCORE.INTER.ROT>
13

>  <SCORE.INTER.SOLV>
13.2815

>  <SCORE.INTER.VDW>
-18.4424

>  <SCORE.INTER.norm>
-0.0535293

>  <SCORE.INTRA>
-14.6212

>  <SCORE.INTRA.DIHEDRAL>
-29.0646

>  <SCORE.INTRA.DIHEDRAL.0>
34.5115

>  <SCORE.INTRA.POLAR>
0

>  <SCORE.INTRA.POLAR.0>
0

>  <SCORE.INTRA.REPUL>
0

>  <SCORE.INTRA.REPUL.0>
0

>  <SCORE.INTRA.SOLV>
-1.82318

>  <SCORE.INTRA.SOLV.lig_0>
-122.812

>  <SCORE.INTRA.VDW>
0.82273

>  <SCORE.INTRA.VDW.0>
-7.46208

>  <SCORE.INTRA.norm>
-0.298391

>  <SCORE.RESTR>
0

>  <SCORE.RESTR.CAVITY>
0

>  <SCORE.RESTR.norm>
0

>  <SCORE.SYSTEM>
0

>  <SCORE.SYSTEM.CONST>
0

>  <SCORE.SYSTEM.DIHEDRAL>
0

>  <SCORE.SYSTEM.SOLV>
0

>  <SCORE.SYSTEM.norm>
0

>  <SCORE.heavy>
49

>  <SCORE.norm>
-0.35192

>  <RMSD>
10.000

$$$$
ligand
 OpenBabel11021811513D
libRbt.so/2013.1/901 2013/11/27
 49 52  0  0  0  0  0  0  0  0999 V2000
   25.3225   13.4307    7.4428 C   0  0  2  0  0  0  0  0  0  0  0  0
   26.2965   13.2064    8.4190 O   0  0  0  0  0  0  0  0  0  0  0  0
   25.7490   12.7342    6.0974 C   0  0  2  0  0  0  0  0  0  0  0  0
   25.9217   11.2431    6.3410 N   0  0  0  0  0  0  0  0  0  0  0  0
   27.1469    9.1420   12.4351 O   0  0  0  0  0  0  0  0  0  0  0  0
   27.0477   13.3706    5.5495 C   0  0  2  0  0  0  0  0  0  0  0  0
   29.5656    4.3559   11.6076 N   0  0  0  0  0  0  0  0  0  0  0  0
   26.8549   14.8794    5.3305 C   0  0  2  0  0  0  0  0  0  0  0  0
   26.4216   15.6171    6.6675 C   0  0  2  0  0  0  0  0  0  0  0  0
   25.1675   14.9212    7.1997 O   0  0  0  0  0  0  0  0  0  0  0  0
   26.1743   17.1344    6.4259 C   0  0  0  0  0  0  0  0  0  0  0  0
   27.2870   17.8148    5.8665 N   0  0  0  0  0  0  0  0  0  0  0  0
   26.8270    9.0521    9.5430 C   0  0  2  0  0  0  0  0  0  0  0  0
   27.2056    7.8632   10.3616 N   0  0  0  0  0  0  0  0  0  0  0  0
   28.0612   10.0765    9.6042 C   0  0  0  0  0  0  0  0  0  0  0  0
   27.7547   11.3572    8.7415 C   0  0  2  0  0  0  0  0  0  0  0  0
   28.8702   12.3129    8.8059 N   0  0  0  0  0  0  0  0  0  0  0  0
   26.4856   12.0606    9.2624 C   0  0  2  0  0  0  0  0  0  0  0  0
   25.2487   11.0752    9.2193 C   0  0  2  0  0  0  0  0  0  0  0  0
   24.0923   11.8399    9.7265 O   0  0  0  0  0  0  0  0  0  0  0  0
   25.5616    9.8044   10.1620 C   0  0  1  0  0  0  0  0  0  0  0  0
   24.4595    8.9541   10.1170 O   0  0  0  0  0  0  0  0  0  0  0  0
   24.0698   13.0868   10.0547 C   0  0  1  0  0  0  0  0  0  0  0  0
   22.9211   13.5113   11.0165 C   0  0  2  0  0  0  0  0  0  0  0  0
   21.8348   13.9127   10.2427 O   0  0  0  0  0  0  0  0  0  0  0  0
   23.5850   14.6585   11.6577 C   0  0  1  0  0  0  0  0  0  0  0  0
   25.0842   14.2898   11.8813 C   0  0  2  0  0  0  0  0  0  0  0  0
   25.2963   13.5799   10.6857 O   0  0  0  0  0  0  0  0  0  0  0  0
   25.4726   13.6058   13.1928 C   0  0  0  0  0  0  0  0  0  0  0  0
   26.8872   13.5749   13.2198 O   0  0  0  0  0  0  0  0  0  0  0  0
   24.4086   16.7478   10.6677 C   0  0  2  0  0  0  0  0  0  0  0  0
   23.4061   15.8235   10.7319 O   0  0  0  0  0  0  0  0  0  0  0  0
   24.4494   17.6215   11.8867 C   0  0  1  0  0  0  0  0  0  0  0  0
   24.0434   20.5473    8.0085 N   0  0  0  0  0  0  0  0  0  0  0  0
   27.0202    6.5828   13.8158 O   0  0  0  0  0  0  0  0  0  0  0  0
   25.5941   18.6952   11.7228 C   0  0  2  0  0  0  0  0  0  0  0  0
   25.4464   19.5815   10.4377 C   0  0  1  0  0  0  0  0  0  0  0  0
   25.4194   18.7202    9.2788 C   0  0  1  0  0  0  0  0  0  0  0  0
   24.3261   17.6771    9.4119 O   0  0  0  0  0  0  0  0  0  0  0  0
   25.2262   19.5763    7.9512 C   0  0  0  0  0  0  0  0  0  0  0  0
   23.2258   18.3058   12.0314 N   0  0  0  0  0  0  0  0  0  0  0  0
   27.3137   12.8766    4.5537 O   0  0  0  0  0  0  0  0  0  0  0  0
   27.4066    5.7069   11.7559 C   0  0  0  0  0  0  0  0  0  0  0  0
   24.4507   20.1489   10.5024 O   0  0  0  0  0  0  0  0  0  0  0  0
   26.5962   18.1386   11.6277 O   0  0  0  0  0  0  0  0  0  0  0  0
   27.3352    8.0708   11.8411 C   0  0  0  0  0  0  0  0  0  0  0  0
   28.5599    5.2501   11.1583 C   0  0  0  0  0  0  0  0  0  0  0  0
   27.7357    6.6946   12.5874 C   0  0  1  0  0  0  0  0  0  0  0  0
   25.8561   15.0995    4.3654 F   0  0  0  0  0  0  0  0  0  0  0  0
  1  2  1  1  0  0  0
  1 10  1  0  0  0  0
  1  3  1  0  0  0  0
  3  4  1  1  0  0  0
  3  6  1  0  0  0  0
  5 46  2  0  0  0  0
  6 42  1  6  0  0  0
  6  8  1  0  0  0  0
  7 47  1  0  0  0  0
  8  9  1  0  0  0  0
  8 49  1  6  0  0  0
  9 10  1  0  0  0  0
  9 11  1  6  0  0  0
 11 12  1  0  0  0  0
 13 14  1  1  0  0  0
 13 15  1  0  0  0  0
 13 21  1  0  0  0  0
 14 46  1  0  0  0  0
 15 16  1  0  0  0  0
 16 17  1  1  0  0  0
 16 18  1  0  0  0  0
 18  2  1  6  0  0  0
 18 19  1  0  0  0  0
 19 20  1  1  0  0  0
 19 21  1  0  0  0  0
 21 22  1  6  0  0  0
 23 20  1  1  0  0  0
 23 24  1  0  0  0  0
 23 28  1  0  0  0  0
 24 25  1  6  0  0  0
 24 26  1  0  0  0  0
 26 27  1  0  0  0  0
 26 32  1  6  0  0  0
 27 28  1  0  0  0  0
 27 29  1  1  0  0  0
 29 30  1  0  0  0  0
 31 32  1  1  0  0  0
 31 33  1  0  0  0  0
 31 39  1  0  0  0  0
 33 36  1  0  0  0  0
 33 41  1  6  0  0  0
 34 40  1  0  0  0  0
 35 48  1  0  0  0  0
 36 37  1  0  0  0  0
 36 45  1  6  0  0  0
 37 38  1  0  0  0  0
 37 44  1  1  0  0  0
 38 39  1  0  0  0  0
 38 40  1  6  0  0  0
 43 47  1  0  0  0  0
 46 48  1  0  0  0  0
 48 43  1  6  0  0  0
M  END
>  <CHROM.1>
-82.18250487,108.60881802,-56.41811617,67.60072937,4.23038415,-158.66888092
-146.37196652,-171.27266910,-73.80864602,-51.32633515,80.94355753,-137.76765513
38.96884901,25.82816457,13.37677758,9.60018613,-2.25912411,-1.22307819,2.28342998

>  <Name>
ligand

>  <RI>
0

>  <Rbt.Current_Directory>
/home/itssahil/PROJECTS/Mol_Feturizer/New_Systems/rnas/4PDQ

>  <Rbt.Executable>
rbdock ($Id: //depot/dev/client3/rdock/2013.1/src/exe/rbdock.cxx#4 $)

>  <Rbt.Library>
libRbt.so (2013.1, Build901 2013/11/27)

>  <Rbt.Parameter_File>
/export/apps/rDock/src/rDock_2013.1_src/data/scripts/dock_solv.prm

>  <Rbt.Receptor>
prm/blind_docking_100.prm

>  <SCORE>
18.2131

>  <SCORE.INTER>
-0.256424

>  <SCORE.INTER.CONST>
1

>  <SCORE.INTER.POLAR>
0

>  <SCORE.INTER.ROT>
13

>  <SCORE.INTER.SOLV>
29.3949

>  <SCORE.INTER.VDW>
-22.2359

>  <SCORE.INTER.norm>
-0.00523314

>  <SCORE.INTRA>
12.3684

>  <SCORE.INTRA.DIHEDRAL>
-3.18414

>  <SCORE.INTRA.DIHEDRAL.0>
34.5115

>  <SCORE.INTRA.POLAR>
0

>  <SCORE.INTRA.POLAR.0>
0

>  <SCORE.INTRA.REPUL>
0

>  <SCORE.INTRA.REPUL.0>
0

>  <SCORE.INTRA.SOLV>
5.51612

>  <SCORE.INTRA.SOLV.lig_0>
-122.812

>  <SCORE.INTRA.VDW>
11.2024

>  <SCORE.INTRA.VDW.0>
-7.46208

>  <SCORE.INTRA.norm>
0.252417

>  <SCORE.RESTR>
6.10115

>  <SCORE.RESTR.CAVITY>
6.10115

>  <SCORE.RESTR.norm>
0.124513

>  <SCORE.SYSTEM>
0

>  <SCORE.SYSTEM.CONST>
0

>  <SCORE.SYSTEM.DIHEDRAL>
0

>  <SCORE.SYSTEM.SOLV>
0

>  <SCORE.SYSTEM.norm>
0

>  <SCORE.heavy>
49

>  <SCORE.norm>
0.371697

>  <RMSD>
10.011

$$$$
ligand
 OpenBabel11021811513D
libRbt.so/2013.1/901 2013/11/27
 49 52  0  0  0  0  0  0  0  0999 V2000
   29.2346    9.5785    5.6167 C   0  0  2  0  0  0  0  0  0  0  0  0
   27.9513    9.4019    5.0933 O   0  0  0  0  0  0  0  0  0  0  0  0
   29.4181    8.6713    6.8897 C   0  0  2  0  0  0  0  0  0  0  0  0
   29.1997    7.2173    6.5013 N   0  0  0  0  0  0  0  0  0  0  0  0
   23.3355    8.3762    0.4983 O   0  0  0  0  0  0  0  0  0  0  0  0
   28.4439    9.1090    8.0082 C   0  0  2  0  0  0  0  0  0  0  0  0
   21.6516    9.2606   -4.0216 N   0  0  0  0  0  0  0  0  0  0  0  0
   28.6702   10.5855    8.3692 C   0  0  2  0  0  0  0  0  0  0  0  0
   28.4950   11.5329    7.1077 C   0  0  2  0  0  0  0  0  0  0  0  0
   29.4367   11.0303    6.0118 O   0  0  0  0  0  0  0  0  0  0  0  0
   28.7800   13.0196    7.4685 C   0  0  0  0  0  0  0  0  0  0  0  0
   28.4129   13.9373    6.4502 N   0  0  0  0  0  0  0  0  0  0  0  0
   25.9876    9.3296    1.2279 C   0  0  2  0  0  0  0  0  0  0  0  0
   25.2446    9.8159    0.0285 N   0  0  0  0  0  0  0  0  0  0  0  0
   25.2262    9.9069    2.5176 C   0  0  0  0  0  0  0  0  0  0  0  0
   25.9337    9.4190    3.8366 C   0  0  2  0  0  0  0  0  0  0  0  0
   25.2572    9.9580    5.0255 N   0  0  0  0  0  0  0  0  0  0  0  0
   27.4014    9.8905    3.8609 C   0  0  2  0  0  0  0  0  0  0  0  0
   28.1808    9.3413    2.5984 C   0  0  2  0  0  0  0  0  0  0  0  0
   29.5658    9.8379    2.7187 O   0  0  0  0  0  0  0  0  0  0  0  0
   27.4757    9.9084    1.2633 C   0  0  1  0  0  0  0  0  0  0  0  0
   28.1799    9.4209    0.1651 O   0  0  0  0  0  0  0  0  0  0  0  0
   30.6330    9.2812    2.2560 C   0  0  1  0  0  0  0  0  0  0  0  0
   31.1404    8.0365    3.0420 C   0  0  2  0  0  0  0  0  0  0  0  0
   32.0418    8.4735    4.0097 O   0  0  0  0  0  0  0  0  0  0  0  0
   31.8233    7.3431    1.9370 C   0  0  1  0  0  0  0  0  0  0  0  0
   30.9605    7.5143    0.6487 C   0  0  2  0  0  0  0  0  0  0  0  0
   30.5430    8.8404    0.8620 O   0  0  0  0  0  0  0  0  0  0  0  0
   29.8837    6.4685    0.3555 C   0  0  0  0  0  0  0  0  0  0  0  0
   29.3589    6.7871   -0.9196 O   0  0  0  0  0  0  0  0  0  0  0  0
   34.0986    7.3553    1.0172 C   0  0  2  0  0  0  0  0  0  0  0  0
   33.1784    7.9716    1.8153 O   0  0  0  0  0  0  0  0  0  0  0  0
   34.5971    6.0735    1.6168 C   0  0  1  0  0  0  0  0  0  0  0  0
   38.2607    9.1576    0.7969 N   0  0  0  0  0  0  0  0  0  0  0  0
   23.4708   11.2592   -1.5944 O   0  0  0  0  0  0  0  0  0  0  0  0
   35.6908    5.4434    0.6697 C   0  0  2  0  0  0  0  0  0  0  0  0
   36.8987    6.4001    0.3793 C   0  0  1  0  0  0  0  0  0  0  0  0
   36.3954    7.6209   -0.2055 C   0  0  1  0  0  0  0  0  0  0  0  0
   35.3406    8.2472    0.6868 O   0  0  0  0  0  0  0  0  0  0  0  0
   37.5857    8.6419   -0.4773 C   0  0  0  0  0  0  0  0  0  0  0  0
   35.1954    6.3262    2.8677 N   0  0  0  0  0  0  0  0  0  0  0  0
   28.6245    8.4632    8.9338 O   0  0  0  0  0  0  0  0  0  0  0  0
   23.7553    9.2318   -2.5786 C   0  0  0  0  0  0  0  0  0  0  0  0
   37.4105    6.6489    1.3761 O   0  0  0  0  0  0  0  0  0  0  0  0
   35.1979    5.2153   -0.3443 O   0  0  0  0  0  0  0  0  0  0  0  0
   23.8882    9.2249   -0.2158 C   0  0  0  0  0  0  0  0  0  0  0  0
   23.0066    9.5268   -3.6960 C   0  0  0  0  0  0  0  0  0  0  0  0
   23.2084    9.8587   -1.5378 C   0  0  1  0  0  0  0  0  0  0  0  0
   29.9715   10.7617    8.8720 F   0  0  0  0  0  0  0  0  0  0  0  0
  1  2  1  1  0  0  0
  1 10  1  0  0  0  0
  1  3  1  0  0  0  0
  3  4  1  6  0  0  0
  3  6  1  0  0  0  0
  5 46  2  0  0  0  0
  6 42  1  1  0  0  0
  6  8  1  0  0  0  0
  7 47  1  0  0  0  0
  8  9  1  0  0  0  0
  8 49  1  6  0  0  0
  9 10  1  0  0  0  0
  9 11  1  1  0  0  0
 11 12  1  0  0  0  0
 13 14  1  6  0  0  0
 13 15  1  0  0  0  0
 13 21  1  0  0  0  0
 14 46  1  0  0  0  0
 15 16  1  0  0  0  0
 16 17  1  1  0  0  0
 16 18  1  0  0  0  0
 18  2  1  1  0  0  0
 18 19  1  0  0  0  0
 19 20  1  1  0  0  0
 19 21  1  0  0  0  0
 21 22  1  6  0  0  0
 23 20  1  1  0  0  0
 23 24  1  0  0  0  0
 23 28  1  0  0  0  0
 24 25  1  1  0  0  0
 24 26  1  0  0  0  0
 26 27  1  0  0  0  0
 26 32  1  6  0  0  0
 27 28  1  0  0  0  0
 27 29  1  1  0  0  0
 29 30  1  0  0  0  0
 31 32  1  1  0  0  0
 31 33  1  0  0  0  0
 31 39  1  0  0  0  0
 33 36  1  0  0  0  0
 33 41  1  1  0  0  0
 34 40  1  0  0  0  0
 35 48  1  0  0  0  0
 36 37  1  0  0  0  0
 36 45  1  6  0  0  0
 37 38  1  0  0  0  0
 37 44  1  1  0  0  0
 38 39  1  0  0  0  0
 38 40  1  1  0  0  0
 43 47  1  0  0  0  0
 46 48  1  0  0  0  0
 48 43  1  6  0  0  0
M  END
>  <CHROM.1>
-171.55435650,-178.32966836,-169.45785136,-70.19710333,151.73387304,-75.25584013
168.80364537,-174.15729959,-71.03667637,-66.07012831,-62.23647578,-73.47555061
138.78136861,29.69224682,8.87966639,2.43041337,-3.10631452,0.23913611,-1.81839619

>  <Name>
ligand

>  <RI>
0

>  <Rbt.Current_Directory>
/home/itssahil/PROJECTS/Mol_Feturizer/New_Systems/rnas/4PDQ

>  <Rbt.Executable>
rbdock ($Id: //depot/dev/client3/rdock/2013.1/src/exe/rbdock.cxx#4 $)

>  <Rbt.Library>
libRbt.so (2013.1, Build901 2013/11/27)

>  <Rbt.Parameter_File>
/export/apps/rDock/src/rDock_2013.1_src/data/scripts/dock_solv.prm

>  <Rbt.Receptor>
prm/pocket_docking_5.prm

>  <SCORE>
-16.8764

>  <SCORE.INTER>
-5.21255

>  <SCORE.INTER.CONST>
1

>  <SCORE.INTER.POLAR>
0

>  <SCORE.INTER.ROT>
13

>  <SCORE.INTER.SOLV>
19.5328

>  <SCORE.INTER.VDW>
-22.2526

>  <SCORE.INTER.norm>
-0.106378

>  <SCORE.INTRA>
-11.6638

>  <SCORE.INTRA.DIHEDRAL>
-25.9775

>  <SCORE.INTRA.DIHEDRAL.0>
34.5115

>  <SCORE.INTRA.POLAR>
0

>  <SCORE.INTRA.POLAR.0>
0

>  <SCORE.INTRA.REPUL>
0

>  <SCORE.INTRA.REPUL.0>
0

>  <SCORE.INTRA.SOLV>
-0.987466

>  <SCORE.INTRA.SOLV.lig_0>
-122.812

>  <SCORE.INTRA.VDW>
1.81869

>  <SCORE.INTRA.VDW.0>
-7.46208

>  <SCORE.INTRA.norm>
-0.238037

>  <SCORE.RESTR>
0

>  <SCORE.RESTR.CAVITY>
0

>  <SCORE.RESTR.norm>
0

>  <SCORE.SYSTEM>
0

>  <SCORE.SYSTEM.CONST>
0

>  <SCORE.SYSTEM.DIHEDRAL>
0

>  <SCORE.SYSTEM.SOLV>
0

>  <SCORE.SYSTEM.norm>
0

>  <SCORE.heavy>
49

>  <SCORE.norm>
-0.344415

>  <RMSD>
10.023

$$$$
ligand
 OpenBabel11021811513D
libRbt.so/2013.1/901 2013/11/27
 49 52  0  0  0  0  0  0  0  0999 V2000
   25.6143   12.3168    6.9861 C   0  0  2  0  0  0  0  0  0  0  0  0
   26.4721   12.8091    7.9730 O   0  0  0  0  0  0  0  0  0  0  0  0
   25.8588   13.0893    5.6368 C   0  0  2  0  0  0  0  0  0  0  0  0
   27.3090   12.9105    5.2158 N   0  0  0  0  0  0  0  0  0  0  0  0
   27.5326   15.4988   14.1174 O   0  0  0  0  0  0  0  0  0  0  0  0
   25.4986   14.5845    5.7992 C   0  0  2  0  0  0  0  0  0  0  0  0
   26.7911   16.1313   16.6130 N   0  0  0  0  0  0  0  0  0  0  0  0
   24.0357   14.7388    6.2438 C   0  0  2  0  0  0  0  0  0  0  0  0
   23.7499   13.9701    7.6029 C   0  0  2  0  0  0  0  0  0  0  0  0
   24.1702   12.5116    7.4119 O   0  0  0  0  0  0  0  0  0  0  0  0
   22.2544   14.0842    8.0177 C   0  0  0  0  0  0  0  0  0  0  0  0
   21.8510   15.4033    8.3514 N   0  0  0  0  0  0  0  0  0  0  0  0
   27.2794   15.5695   11.2182 C   0  0  2  0  0  0  0  0  0  0  0  0
   27.1738   16.7843   12.0786 N   0  0  0  0  0  0  0  0  0  0  0  0
   27.3036   16.0740    9.6946 C   0  0  0  0  0  0  0  0  0  0  0  0
   27.4390   14.8504    8.7135 C   0  0  2  0  0  0  0  0  0  0  0  0
   27.4420   15.2982    7.3130 N   0  0  0  0  0  0  0  0  0  0  0  0
   26.2585   13.8778    8.9068 C   0  0  2  0  0  0  0  0  0  0  0  0
   26.2032   13.3639   10.4021 C   0  0  2  0  0  0  0  0  0  0  0  0
   25.0534   12.4413   10.4805 O   0  0  0  0  0  0  0  0  0  0  0  0
   25.9987   14.6294   11.3810 C   0  0  1  0  0  0  0  0  0  0  0  0
   25.9447   14.1561   12.6897 O   0  0  0  0  0  0  0  0  0  0  0  0
   25.0946   11.1584   10.6041 C   0  0  1  0  0  0  0  0  0  0  0  0
   25.1946   10.3548    9.2741 C   0  0  2  0  0  0  0  0  0  0  0  0
   23.9016   10.0611    8.8476 O   0  0  0  0  0  0  0  0  0  0  0  0
   25.8808    9.1593    9.7916 C   0  0  1  0  0  0  0  0  0  0  0  0
   26.9369    9.6217   10.8424 C   0  0  2  0  0  0  0  0  0  0  0  0
   26.1895   10.6546   11.4365 O   0  0  0  0  0  0  0  0  0  0  0  0
   28.3465    9.9558   10.3519 C   0  0  0  0  0  0  0  0  0  0  0  0
   29.1719    9.9746   11.5013 O   0  0  0  0  0  0  0  0  0  0  0  0
   25.2151    7.1631   11.0548 C   0  0  2  0  0  0  0  0  0  0  0  0
   24.8182    8.2838   10.3839 O   0  0  0  0  0  0  0  0  0  0  0  0
   25.0297    7.2979   12.5376 C   0  0  1  0  0  0  0  0  0  0  0  0
   28.9895    5.1906    9.6178 N   0  0  0  0  0  0  0  0  0  0  0  0
   27.2303   19.0714   13.4222 O   0  0  0  0  0  0  0  0  0  0  0  0
   25.5543    5.9920   13.2513 C   0  0  2  0  0  0  0  0  0  0  0  0
   27.0524    5.6579   12.9306 C   0  0  1  0  0  0  0  0  0  0  0  0
   27.2035    5.5235   11.5007 C   0  0  1  0  0  0  0  0  0  0  0  0
   26.7053    6.7676   10.7900 O   0  0  0  0  0  0  0  0  0  0  0  0
   28.7214    5.2268   11.1251 C   0  0  0  0  0  0  0  0  0  0  0  0
   25.7779    8.3904   13.0203 N   0  0  0  0  0  0  0  0  0  0  0  0
   25.6453   15.1144    4.7971 O   0  0  0  0  0  0  0  0  0  0  0  0
   26.0328   17.9519   14.9947 C   0  0  0  0  0  0  0  0  0  0  0  0
   27.7030    6.5315   13.2926 O   0  0  0  0  0  0  0  0  0  0  0  0
   24.9290    5.1026   12.8754 O   0  0  0  0  0  0  0  0  0  0  0  0
   27.3227   16.5841   13.5573 C   0  0  0  0  0  0  0  0  0  0  0  0
   26.2481   17.3852   16.2310 C   0  0  0  0  0  0  0  0  0  0  0  0
   27.1974   17.9877   14.3484 C   0  0  1  0  0  0  0  0  0  0  0  0
   23.1781   14.2190    5.2580 F   0  0  0  0  0  0  0  0  0  0  0  0
  1  2  1  1  0  0  0
  1 10  1  0  0  0  0
  1  3  1  0  0  0  0
  3  4  1  1  0  0  0
  3  6  1  0  0  0  0
  5 46  2  0  0  0  0
  6 42  1  6  0  0  0
  6  8  1  0  0  0  0
  7 47  1  0  0  0  0
  8  9  1  0  0  0  0
  8 49  1  6  0  0  0
  9 10  1  0  0  0  0
  9 11  1  6  0  0  0
 11 12  1  0  0  0  0
 13 14  1  1  0  0  0
 13 15  1  0  0  0  0
 13 21  1  0  0  0  0
 14 46  1  0  0  0  0
 15 16  1  0  0  0  0
 16 17  1  6  0  0  0
 16 18  1  0  0  0  0
 18  2  1  6  0  0  0
 18 19  1  0  0  0  0
 19 20  1  6  0  0  0
 19 21  1  0  0  0  0
 21 22  1  1  0  0  0
 23 20  1  6  0  0  0
 23 24  1  0  0  0  0
 23 28  1  0  0  0  0
 24 25  1  1  0  0  0
 24 26  1  0  0  0  0
 26 27  1  0  0  0  0
 26 32  1  1  0  0  0
 27 28  1  0  0  0  0
 27 29  1  6  0  0  0
 29 30  1  0  0  0  0
 31 32  1  6  0  0  0
 31 33  1  0  0  0  0
 31 39  1  0  0  0  0
 33 36  1  0  0  0  0
 33 41  1  1  0  0  0
 34 40  1  0  0  0  0
 35 48  1  0  0  0  0
 36 37  1  0  0  0  0
 36 45  1  6  0  0  0
 37 38  1  0  0  0  0
 37 44  1  6  0  0  0
 38 39  1  0  0  0  0
 38 40  1  1  0  0  0
 43 47  1  0  0  0  0
 46 48  1  0  0  0  0
 48 43  1  6  0  0  0
M  END
>  <CHROM.1>
90.21649986,-125.25955407,-66.06559892,-171.84826432,108.54641084,-87.29623833
-173.59529811,-164.08720670,107.75660766,-174.98610926,-57.01813016,-151.67205805
168.22036637,26.07315401,12.05988952,10.39751578,1.83274932,-1.30748207,0.15568293

>  <Name>
ligand

>  <RI>
0

>  <Rbt.Current_Directory>
/home/itssahil/PROJECTS/Mol_Feturizer/New_Systems/rnas/4PDQ

>  <Rbt.Executable>
rbdock ($Id: //depot/dev/client3/rdock/2013.1/src/exe/rbdock.cxx#4 $)

>  <Rbt.Library>
libRbt.so (2013.1, Build901 2013/11/27)

>  <Rbt.Parameter_File>
/export/apps/rDock/src/rDock_2013.1_src/data/scripts/dock_solv.prm

>  <Rbt.Receptor>
prm/blind_docking_100.prm

>  <SCORE>
42.5201

>  <SCORE.INTER>
27.0913

>  <SCORE.INTER.CONST>
1

>  <SCORE.INTER.POLAR>
0

>  <SCORE.INTER.ROT>
13

>  <SCORE.INTER.SOLV>
28.3278

>  <SCORE.INTER.VDW>
-3.64839

>  <SCORE.INTER.norm>
0.552884

>  <SCORE.INTRA>
5.91908

>  <SCORE.INTRA.DIHEDRAL>
-1.64723

>  <SCORE.INTRA.DIHEDRAL.0>
34.5115

>  <SCORE.INTRA.POLAR>
0

>  <SCORE.INTRA.POLAR.0>
0

>  <SCORE.INTRA.REPUL>
0

>  <SCORE.INTRA.REPUL.0>
0

>  <SCORE.INTRA.SOLV>
8.18908

>  <SCORE.INTRA.SOLV.lig_0>
-122.812

>  <SCORE.INTRA.VDW>
2.64815

>  <SCORE.INTRA.VDW.0>
-7.46208

>  <SCORE.INTRA.norm>
0.120798

>  <SCORE.RESTR>
9.50968

>  <SCORE.RESTR.CAVITY>
9.50968

>  <SCORE.RESTR.norm>
0.194075

>  <SCORE.SYSTEM>
0

>  <SCORE.SYSTEM.CONST>
0

>  <SCORE.SYSTEM.DIHEDRAL>
0

>  <SCORE.SYSTEM.SOLV>
0

>  <SCORE.SYSTEM.norm>
0

>  <SCORE.heavy>
49

>  <SCORE.norm>
0.867756

>  <RMSD>
10.033

$$$$
ligand
 OpenBabel11021811513D
libRbt.so/2013.1/901 2013/11/27
 49 52  0  0  0  0  0  0  0  0999 V2000
   26.0783   13.4681    8.1336 C   0  0  2  0  0  0  0  0  0  0  0  0
   25.0390   12.5782    8.4164 O   0  0  0  0  0  0  0  0  0  0  0  0
   25.6798   14.3795    6.9139 C   0  0  2  0  0  0  0  0  0  0  0  0
   24.4083   15.1408    7.2549 N   0  0  0  0  0  0  0  0  0  0  0  0
   28.2265    7.0626   11.0299 O   0  0  0  0  0  0  0  0  0  0  0  0
   25.5003   13.5239    5.6381 C   0  0  2  0  0  0  0  0  0  0  0  0
   25.9175    7.3824   15.6464 N   0  0  0  0  0  0  0  0  0  0  0  0
   26.7903   12.7495    5.3255 C   0  0  2  0  0  0  0  0  0  0  0  0
   27.2256   11.8190    6.5356 C   0  0  2  0  0  0  0  0  0  0  0  0
   27.3383   12.6973    7.7831 O   0  0  0  0  0  0  0  0  0  0  0  0
   28.5618   11.0808    6.2338 C   0  0  0  0  0  0  0  0  0  0  0  0
   28.9972   10.2309    7.2836 N   0  0  0  0  0  0  0  0  0  0  0  0
   26.4436    9.3630   10.9642 C   0  0  2  0  0  0  0  0  0  0  0  0
   26.4743    8.3835   12.0897 N   0  0  0  0  0  0  0  0  0  0  0  0
   26.0503   10.7870   11.5918 C   0  0  0  0  0  0  0  0  0  0  0  0
   26.0187   11.8911   10.4702 C   0  0  2  0  0  0  0  0  0  0  0  0
   25.6396   13.1970   11.0295 N   0  0  0  0  0  0  0  0  0  0  0  0
   24.9938   11.5166    9.3810 C   0  0  2  0  0  0  0  0  0  0  0  0
   25.3507   10.1132    8.7436 C   0  0  2  0  0  0  0  0  0  0  0  0
   24.3232    9.8519    7.7162 O   0  0  0  0  0  0  0  0  0  0  0  0
   25.3121    8.9902    9.9006 C   0  0  1  0  0  0  0  0  0  0  0  0
   25.6206    7.7630    9.3189 O   0  0  0  0  0  0  0  0  0  0  0  0
   24.4431    9.1074    6.6702 C   0  0  1  0  0  0  0  0  0  0  0  0
   25.4105    9.6377    5.5713 C   0  0  2  0  0  0  0  0  0  0  0  0
   24.6703   10.4090    4.6785 O   0  0  0  0  0  0  0  0  0  0  0  0
   25.7998    8.3463    4.9806 C   0  0  1  0  0  0  0  0  0  0  0  0
   25.9608    7.3117    6.1369 C   0  0  2  0  0  0  0  0  0  0  0  0
   24.8850    7.7366    6.9371 O   0  0  0  0  0  0  0  0  0  0  0  0
   27.3317    7.1778    6.8015 C   0  0  0  0  0  0  0  0  0  0  0  0
   27.2168    6.1228    7.7377 O   0  0  0  0  0  0  0  0  0  0  0  0
   24.7735    8.4930    2.7560 C   0  0  2  0  0  0  0  0  0  0  0  0
   24.7126    7.9757    4.0178 O   0  0  0  0  0  0  0  0  0  0  0  0
   23.9669    7.6907    1.7778 C   0  0  1  0  0  0  0  0  0  0  0  0
   28.7665   10.0750    1.3380 N   0  0  0  0  0  0  0  0  0  0  0  0
   28.0017    5.0384   12.9873 O   0  0  0  0  0  0  0  0  0  0  0  0
   24.1233    8.3129    0.3361 C   0  0  2  0  0  0  0  0  0  0  0  0
   25.6108    8.4065   -0.1511 C   0  0  1  0  0  0  0  0  0  0  0  0
   26.3637    9.1902    0.8000 C   0  0  1  0  0  0  0  0  0  0  0  0
   26.2293    8.6123    2.1961 O   0  0  0  0  0  0  0  0  0  0  0  0
   27.8930    9.2751    0.3673 C   0  0  0  0  0  0  0  0  0  0  0  0
   24.4405    6.3640    1.7350 N   0  0  0  0  0  0  0  0  0  0  0  0
   25.2518   14.2117    4.7598 O   0  0  0  0  0  0  0  0  0  0  0  0
   28.0045    6.9253   14.2521 C   0  0  0  0  0  0  0  0  0  0  0  0
   26.0470    7.3454   -0.1863 O   0  0  0  0  0  0  0  0  0  0  0  0
   23.7159    9.3883    0.3640 O   0  0  0  0  0  0  0  0  0  0  0  0
   27.4465    7.2474   11.9749 C   0  0  0  0  0  0  0  0  0  0  0  0
   27.0864    7.7108   14.9125 C   0  0  0  0  0  0  0  0  0  0  0  0
   27.3701    6.2850   13.2708 C   0  0  1  0  0  0  0  0  0  0  0  0
   27.8387   13.6501    5.0664 F   0  0  0  0  0  0  0  0  0  0  0  0
  1  2  1  6  0  0  0
  1 10  1  0  0  0  0
  1  3  1  0  0  0  0
  3  4  1  1  0  0  0
  3  6  1  0  0  0  0
  5 46  2  0  0  0  0
  6 42  1  6  0  0  0
  6  8  1  0  0  0  0
  7 47  1  0  0  0  0
  8  9  1  0  0  0  0
  8 49  1  1  0  0  0
  9 10  1  0  0  0  0
  9 11  1  6  0  0  0
 11 12  1  0  0  0  0
 13 14  1  1  0  0  0
 13 15  1  0  0  0  0
 13 21  1  0  0  0  0
 14 46  1  0  0  0  0
 15 16  1  0  0  0  0
 16 17  1  1  0  0  0
 16 18  1  0  0  0  0
 18  2  1  6  0  0  0
 18 19  1  0  0  0  0
 19 20  1  6  0  0  0
 19 21  1  0  0  0  0
 21 22  1  6  0  0  0
 23 20  1  1  0  0  0
 23 24  1  0  0  0  0
 23 28  1  0  0  0  0
 24 25  1  6  0  0  0
 24 26  1  0  0  0  0
 26 27  1  0  0  0  0
 26 32  1  6  0  0  0
 27 28  1  0  0  0  0
 27 29  1  1  0  0  0
 29 30  1  0  0  0  0
 31 32  1  1  0  0  0
 31 33  1  0  0  0  0
 31 39  1  0  0  0  0
 33 36  1  0  0  0  0
 33 41  1  6  0  0  0
 34 40  1  0  0  0  0
 35 48  1  0  0  0  0
 36 37  1  0  0  0  0
 36 45  1  1  0  0  0
 37 38  1  0  0  0  0
 37 44  1  1  0  0  0
 38 39  1  0  0  0  0
 38 40  1  6  0  0  0
 43 47  1  0  0  0  0
 46 48  1  0  0  0  0
 48 43  1  1  0  0  0
M  END
>  <CHROM.1>
175.71239957,24.49454387,-179.87182860,-148.68774419,154.37904102,-68.59150433
84.45020370,-176.17071366,159.10472784,-179.16390372,62.40452342,-151.26948384
-17.18008778,26.11853287,9.63413339,6.89496278,0.42650544,-1.45297370,0.51833258

>  <Name>
ligand

>  <RI>
0

>  <Rbt.Current_Directory>
/home/itssahil/PROJECTS/Mol_Feturizer/New_Systems/rnas/4PDQ

>  <Rbt.Executable>
rbdock ($Id: //depot/dev/client3/rdock/2013.1/src/exe/rbdock.cxx#4 $)

>  <Rbt.Library>
libRbt.so (2013.1, Build901 2013/11/27)

>  <Rbt.Parameter_File>
/export/apps/rDock/src/rDock_2013.1_src/data/scripts/dock_solv.prm

>  <Rbt.Receptor>
prm/pocket_docking_6.prm

>  <SCORE>
-8.96375

>  <SCORE.INTER>
-1.72557

>  <SCORE.INTER.CONST>
1

>  <SCORE.INTER.POLAR>
0

>  <SCORE.INTER.ROT>
13

>  <SCORE.INTER.SOLV>
13.331

>  <SCORE.INTER.VDW>
-17.8607

>  <SCORE.INTER.norm>
-0.0352156

>  <SCORE.INTRA>
-7.23819

>  <SCORE.INTRA.DIHEDRAL>
-17.8729

>  <SCORE.INTRA.DIHEDRAL.0>
34.5115

>  <SCORE.INTRA.POLAR>
0

>  <SCORE.INTRA.POLAR.0>
0

>  <SCORE.INTRA.REPUL>
0

>  <SCORE.INTRA.REPUL.0>
0

>  <SCORE.INTRA.SOLV>
1.43167

>  <SCORE.INTRA.SOLV.lig_0>
-122.812

>  <SCORE.INTRA.VDW>
0.982406

>  <SCORE.INTRA.VDW.0>
-7.46208

>  <SCORE.INTRA.norm>
-0.147718

>  <SCORE.RESTR>
0

>  <SCORE.RESTR.CAVITY>
0

>  <SCORE.RESTR.norm>
0

>  <SCORE.SYSTEM>
0

>  <SCORE.SYSTEM.CONST>
0

>  <SCORE.SYSTEM.DIHEDRAL>
0

>  <SCORE.SYSTEM.SOLV>
0

>  <SCORE.SYSTEM.norm>
0

>  <SCORE.heavy>
49

>  <SCORE.norm>
-0.182934

>  <RMSD>
10.034

$$$$
ligand
 OpenBabel11021811513D
libRbt.so/2013.1/901 2013/11/27
 49 52  0  0  0  0  0  0  0  0999 V2000
   27.5334   14.2470    6.5232 C   0  0  2  0  0  0  0  0  0  0  0  0
   27.2304   14.3830    7.8803 O   0  0  0  0  0  0  0  0  0  0  0  0
   27.0048   15.5013    5.7329 C   0  0  2  0  0  0  0  0  0  0  0  0
   27.6531   16.7556    6.2975 N   0  0  0  0  0  0  0  0  0  0  0  0
   27.0160   10.8450   12.3852 O   0  0  0  0  0  0  0  0  0  0  0  0
   25.4623   15.5781    5.8136 C   0  0  2  0  0  0  0  0  0  0  0  0
   27.5884    6.3469   14.8058 N   0  0  0  0  0  0  0  0  0  0  0  0
   24.8312   14.2926    5.2562 C   0  0  2  0  0  0  0  0  0  0  0  0
   25.3428   13.0036    6.0285 C   0  0  2  0  0  0  0  0  0  0  0  0
   26.8714   12.9987    5.9679 O   0  0  0  0  0  0  0  0  0  0  0  0
   24.7427   11.7018    5.4228 C   0  0  0  0  0  0  0  0  0  0  0  0
   25.4741   11.1931    4.3182 N   0  0  0  0  0  0  0  0  0  0  0  0
   26.6360   10.4175    9.5308 C   0  0  2  0  0  0  0  0  0  0  0  0
   26.5644    9.3197   10.5392 N   0  0  0  0  0  0  0  0  0  0  0  0
   28.0008   11.2171    9.8034 C   0  0  0  0  0  0  0  0  0  0  0  0
   28.1697   12.3854    8.7619 C   0  0  2  0  0  0  0  0  0  0  0  0
   29.4072   13.1385    9.0139 N   0  0  0  0  0  0  0  0  0  0  0  0
   26.9814   13.3629    8.8586 C   0  0  2  0  0  0  0  0  0  0  0  0
   25.6176   12.6044    8.5987 C   0  0  2  0  0  0  0  0  0  0  0  0
   24.5520   13.6206    8.7051 O   0  0  0  0  0  0  0  0  0  0  0  0
   25.4379   11.4568    9.7176 C   0  0  1  0  0  0  0  0  0  0  0  0
   24.2298   10.8070    9.4767 O   0  0  0  0  0  0  0  0  0  0  0  0
   24.2473   14.3199    9.7448 C   0  0  1  0  0  0  0  0  0  0  0  0
   22.9330   13.9106   10.4726 C   0  0  2  0  0  0  0  0  0  0  0  0
   21.8875   14.6522    9.9279 O   0  0  0  0  0  0  0  0  0  0  0  0
   23.2794   14.3730   11.8269 C   0  0  1  0  0  0  0  0  0  0  0  0
   24.7850   14.0525   12.0797 C   0  0  2  0  0  0  0  0  0  0  0  0
   25.2708   14.3442   10.7924 O   0  0  0  0  0  0  0  0  0  0  0  0
   25.1434   12.6940   12.6838 C   0  0  0  0  0  0  0  0  0  0  0  0
   24.4608   12.6181   13.9212 O   0  0  0  0  0  0  0  0  0  0  0  0
   23.8876   16.6874   11.2819 C   0  0  2  0  0  0  0  0  0  0  0  0
   22.9855   15.8423   11.8611 O   0  0  0  0  0  0  0  0  0  0  0  0
   23.8978   18.0371   11.9374 C   0  0  1  0  0  0  0  0  0  0  0  0
   23.1719   16.9891    7.0412 N   0  0  0  0  0  0  0  0  0  0  0  0
   25.3805    7.8099   12.7893 O   0  0  0  0  0  0  0  0  0  0  0  0
   24.9218   18.9750   11.1879 C   0  0  2  0  0  0  0  0  0  0  0  0
   24.6282   19.1299    9.6554 C   0  0  1  0  0  0  0  0  0  0  0  0
   24.6333   17.8207    9.0457 C   0  0  1  0  0  0  0  0  0  0  0  0
   23.6558   16.8984    9.7493 O   0  0  0  0  0  0  0  0  0  0  0  0
   24.2953   17.9260    7.4940 C   0  0  0  0  0  0  0  0  0  0  0  0
   22.6204   18.6261   11.8494 N   0  0  0  0  0  0  0  0  0  0  0  0
   25.1008   16.4718    5.1996 O   0  0  0  0  0  0  0  0  0  0  0  0
   27.6281    7.5682   12.5663 C   0  0  0  0  0  0  0  0  0  0  0  0
   23.5852   19.5932    9.5322 O   0  0  0  0  0  0  0  0  0  0  0  0
   25.9687   18.5070   11.2787 O   0  0  0  0  0  0  0  0  0  0  0  0
   26.7867    9.6991   11.9729 C   0  0  0  0  0  0  0  0  0  0  0  0
   28.1771    7.0167   13.7023 C   0  0  0  0  0  0  0  0  0  0  0  0
   26.6652    8.4100   12.9399 C   0  0  1  0  0  0  0  0  0  0  0  0
   25.1602   14.1480    3.8967 F   0  0  0  0  0  0  0  0  0  0  0  0
  1  2  1  1  0  0  0
  1 10  1  0  0  0  0
  1  3  1  0  0  0  0
  3  4  1  1  0  0  0
  3  6  1  0  0  0  0
  5 46  2  0  0  0  0
  6 42  1  6  0  0  0
  6  8  1  0  0  0  0
  7 47  1  0  0  0  0
  8  9  1  0  0  0  0
  8 49  1  6  0  0  0
  9 10  1  0  0  0  0
  9 11  1  6  0  0  0
 11 12  1  0  0  0  0
 13 14  1  1  0  0  0
 13 15  1  0  0  0  0
 13 21  1  0  0  0  0
 14 46  1  0  0  0  0
 15 16  1  0  0  0  0
 16 17  1  1  0  0  0
 16 18  1  0  0  0  0
 18  2  1  6  0  0  0
 18 19  1  0  0  0  0
 19 20  1  1  0  0  0
 19 21  1  0  0  0  0
 21 22  1  6  0  0  0
 23 20  1  6  0  0  0
 23 24  1  0  0  0  0
 23 28  1  0  0  0  0
 24 25  1  6  0  0  0
 24 26  1  0  0  0  0
 26 27  1  0  0  0  0
 26 32  1  6  0  0  0
 27 28  1  0  0  0  0
 27 29  1  6  0  0  0
 29 30  1  0  0  0  0
 31 32  1  1  0  0  0
 31 33  1  0  0  0  0
 31 39  1  0  0  0  0
 33 36  1  0  0  0  0
 33 41  1  6  0  0  0
 34 40  1  0  0  0  0
 35 48  1  0  0  0  0
 36 37  1  0  0  0  0
 36 45  1  6  0  0  0
 37 38  1  0  0  0  0
 37 44  1  1  0  0  0
 38 39  1  0  0  0  0
 38 40  1  6  0  0  0
 43 47  1  0  0  0  0
 46 48  1  0  0  0  0
 48 43  1  6  0  0  0
M  END
>  <CHROM.1>
150.79832243,51.68884162,85.32990323,50.10136793,-62.18928824,-106.21332769
-78.25321054,-58.25251596,-150.75034194,-128.66489682,53.13380351,-100.86736740
120.94464261,25.43320585,13.73532524,9.48593310,-2.24056517,-1.17785244,2.06080934

>  <Name>
ligand

>  <RI>
0

>  <Rbt.Current_Directory>
/home/itssahil/PROJECTS/Mol_Feturizer/New_Systems/rnas/4PDQ

>  <Rbt.Executable>
rbdock ($Id: //depot/dev/client3/rdock/2013.1/src/exe/rbdock.cxx#4 $)

>  <Rbt.Library>
libRbt.so (2013.1, Build901 2013/11/27)

>  <Rbt.Parameter_File>
/export/apps/rDock/src/rDock_2013.1_src/data/scripts/dock_solv.prm

>  <Rbt.Receptor>
prm/blind_docking_80.prm

>  <SCORE>
24.4564

>  <SCORE.INTER>
10.8014

>  <SCORE.INTER.CONST>
1

>  <SCORE.INTER.POLAR>
0

>  <SCORE.INTER.ROT>
13

>  <SCORE.INTER.SOLV>
31.4511

>  <SCORE.INTER.VDW>
-15.5494

>  <SCORE.INTER.norm>
0.220437

>  <SCORE.INTRA>
7.52006

>  <SCORE.INTRA.DIHEDRAL>
-7.4068

>  <SCORE.INTRA.DIHEDRAL.0>
34.5115

>  <SCORE.INTRA.POLAR>
0

>  <SCORE.INTRA.POLAR.0>
0

>  <SCORE.INTRA.REPUL>
0

>  <SCORE.INTRA.REPUL.0>
0

>  <SCORE.INTRA.SOLV>
6.73063

>  <SCORE.INTRA.SOLV.lig_0>
-122.812

>  <SCORE.INTRA.VDW>
7.85815

>  <SCORE.INTRA.VDW.0>
-7.46208

>  <SCORE.INTRA.norm>
0.153471

>  <SCORE.RESTR>
6.13495

>  <SCORE.RESTR.CAVITY>
6.13495

>  <SCORE.RESTR.norm>
0.125203

>  <SCORE.SYSTEM>
0

>  <SCORE.SYSTEM.CONST>
0

>  <SCORE.SYSTEM.DIHEDRAL>
0

>  <SCORE.SYSTEM.SOLV>
0

>  <SCORE.SYSTEM.norm>
0

>  <SCORE.heavy>
49

>  <SCORE.norm>
0.499111

>  <RMSD>
10.039

$$$$
ligand
 OpenBabel11021811513D
libRbt.so/2013.1/901 2013/11/27
 49 52  0  0  0  0  0  0  0  0999 V2000
   26.9008   13.2997    9.1915 C   0  0  2  0  0  0  0  0  0  0  0  0
   26.3217   12.3737    8.3202 O   0  0  0  0  0  0  0  0  0  0  0  0
   26.7431   14.7515    8.6044 C   0  0  2  0  0  0  0  0  0  0  0  0
   25.2651   15.0547    8.4148 N   0  0  0  0  0  0  0  0  0  0  0  0
   25.4411    6.6546    8.2196 O   0  0  0  0  0  0  0  0  0  0  0  0
   27.5212   14.8822    7.2742 C   0  0  2  0  0  0  0  0  0  0  0  0
   23.6293    1.8256    8.2934 N   0  0  0  0  0  0  0  0  0  0  0  0
   29.0069   14.5521    7.4870 C   0  0  2  0  0  0  0  0  0  0  0  0
   29.2060   13.0936    8.0810 C   0  0  2  0  0  0  0  0  0  0  0  0
   28.3780   12.9945    9.3635 O   0  0  0  0  0  0  0  0  0  0  0  0
   30.7086   12.7873    8.3458 C   0  0  0  0  0  0  0  0  0  0  0  0
   31.4866   12.6693    7.1647 N   0  0  0  0  0  0  0  0  0  0  0  0
   25.9992    8.5564   10.3518 C   0  0  2  0  0  0  0  0  0  0  0  0
   25.6252    7.1335   10.6018 N   0  0  0  0  0  0  0  0  0  0  0  0
   24.6882    9.2952    9.7933 C   0  0  0  0  0  0  0  0  0  0  0  0
   24.9886   10.8169    9.5242 C   0  0  2  0  0  0  0  0  0  0  0  0
   23.8003   11.5006    8.9928 N   0  0  0  0  0  0  0  0  0  0  0  0
   26.1291   10.9625    8.4970 C   0  0  2  0  0  0  0  0  0  0  0  0
   27.4375   10.2402    9.0158 C   0  0  2  0  0  0  0  0  0  0  0  0
   28.4630   10.4424    7.9733 O   0  0  0  0  0  0  0  0  0  0  0  0
   27.1208    8.6720    9.2208 C   0  0  1  0  0  0  0  0  0  0  0  0
   28.2852    8.0535    9.6695 O   0  0  0  0  0  0  0  0  0  0  0  0
   28.3747   10.1271    6.7261 C   0  0  1  0  0  0  0  0  0  0  0  0
   28.0399    8.6358    6.4285 C   0  0  2  0  0  0  0  0  0  0  0  0
   29.2395    7.9396    6.3024 O   0  0  0  0  0  0  0  0  0  0  0  0
   27.3765    8.8158    5.1264 C   0  0  1  0  0  0  0  0  0  0  0  0
   26.5109   10.1116    5.1969 C   0  0  2  0  0  0  0  0  0  0  0  0
   27.3893   10.8979    5.9642 O   0  0  0  0  0  0  0  0  0  0  0  0
   25.0637    9.9891    5.6760 C   0  0  0  0  0  0  0  0  0  0  0  0
   24.4282    9.0865    4.7905 O   0  0  0  0  0  0  0  0  0  0  0  0
   28.1070    8.9627    2.7880 C   0  0  2  0  0  0  0  0  0  0  0  0
   28.4681    8.9025    4.1031 O   0  0  0  0  0  0  0  0  0  0  0  0
   29.2978    8.9591    1.8752 C   0  0  1  0  0  0  0  0  0  0  0  0
   25.4146   11.8156   -0.6683 N   0  0  0  0  0  0  0  0  0  0  0  0
   24.0990    4.7908   10.9469 O   0  0  0  0  0  0  0  0  0  0  0  0
   28.8107    9.0819    0.3793 C   0  0  2  0  0  0  0  0  0  0  0  0
   27.9340   10.3527    0.1051 C   0  0  1  0  0  0  0  0  0  0  0  0
   26.7909   10.3287    0.9872 C   0  0  1  0  0  0  0  0  0  0  0  0
   27.2327   10.2106    2.4336 O   0  0  0  0  0  0  0  0  0  0  0  0
   25.8936   11.6258    0.7738 C   0  0  0  0  0  0  0  0  0  0  0  0
   30.1257   10.0642    2.1574 N   0  0  0  0  0  0  0  0  0  0  0  0
   27.4250   15.9542    6.8898 O   0  0  0  0  0  0  0  0  0  0  0  0
   24.3987    4.2106    8.7712 C   0  0  0  0  0  0  0  0  0  0  0  0
   28.5639   11.2835    0.3382 O   0  0  0  0  0  0  0  0  0  0  0  0
   28.1535    8.1685    0.1405 O   0  0  0  0  0  0  0  0  0  0  0  0
   25.3641    6.2784    9.3978 C   0  0  0  0  0  0  0  0  0  0  0  0
   24.2943    2.8575    9.0045 C   0  0  0  0  0  0  0  0  0  0  0  0
   24.9851    4.7681    9.8298 C   0  0  1  0  0  0  0  0  0  0  0  0
   29.5783   15.4721    8.3839 F   0  0  0  0  0  0  0  0  0  0  0  0
  1  2  1  6  0  0  0
  1 10  1  0  0  0  0
  1  3  1  0  0  0  0
  3  4  1  6  0  0  0
  3  6  1  0  0  0  0
  5 46  2  0  0  0  0
  6 42  1  1  0  0  0
  6  8  1  0  0  0  0
  7 47  1  0  0  0  0
  8  9  1  0  0  0  0
  8 49  1  1  0  0  0
  9 10  1  0  0  0  0
  9 11  1  1  0  0  0
 11 12  1  0  0  0  0
 13 14  1  6  0  0  0
 13 15  1  0  0  0  0
 13 21  1  0  0  0  0
 14 46  1  0  0  0  0
 15 16  1  0  0  0  0
 16 17  1  6  0  0  0
 16 18  1  0  0  0  0
 18  2  1  1  0  0  0
 18 19  1  0  0  0  0
 19 20  1  6  0  0  0
 19 21  1  0  0  0  0
 21 22  1  1  0  0  0
 23 20  1  1  0  0  0
 23 24  1  0  0  0  0
 23 28  1  0  0  0  0
 24 25  1  6  0  0  0
 24 26  1  0  0  0  0
 26 27  1  0  0  0  0
 26 32  1  6  0  0  0
 27 28  1  0  0  0  0
 27 29  1  1  0  0  0
 29 30  1  0  0  0  0
 31 32  1  1  0  0  0
 31 33  1  0  0  0  0
 31 39  1  0  0  0  0
 33 36  1  0  0  0  0
 33 41  1  1  0  0  0
 34 40  1  0  0  0  0
 35 48  1  0  0  0  0
 36 37  1  0  0  0  0
 36 45  1  1  0  0  0
 37 38  1  0  0  0  0
 37 44  1  1  0  0  0
 38 39  1  0  0  0  0
 38 40  1  1  0  0  0
 43 47  1  0  0  0  0
 46 48  1  0  0  0  0
 48 43  1  6  0  0  0
M  END
>  <CHROM.1>
-174.10172135,72.92501904,-68.35291669,70.00367704,-55.78332794,-55.57842525
174.75957489,-58.56004041,-176.40947462,56.62417648,171.87667122,-72.01698290
-138.89262065,27.05394821,10.03507551,6.46899207,-0.35533421,1.20834621,1.09045673

>  <Name>
ligand

>  <RI>
0

>  <Rbt.Current_Directory>
/home/itssahil/PROJECTS/Mol_Feturizer/New_Systems/rnas/4PDQ

>  <Rbt.Executable>
rbdock ($Id: //depot/dev/client3/rdock/2013.1/src/exe/rbdock.cxx#4 $)

>  <Rbt.Library>
libRbt.so (2013.1, Build901 2013/11/27)

>  <Rbt.Parameter_File>
/export/apps/rDock/src/rDock_2013.1_src/data/scripts/dock_solv.prm

>  <Rbt.Receptor>
prm/pocket_docking_8.prm

>  <SCORE>
-12.9934

>  <SCORE.INTER>
-0.129674

>  <SCORE.INTER.CONST>
1

>  <SCORE.INTER.POLAR>
0

>  <SCORE.INTER.ROT>
13

>  <SCORE.INTER.SOLV>
16.4292

>  <SCORE.INTER.VDW>
-17.8295

>  <SCORE.INTER.norm>
-0.00264641

>  <SCORE.INTRA>
-12.8637

>  <SCORE.INTRA.DIHEDRAL>
-30.7889

>  <SCORE.INTRA.DIHEDRAL.0>
34.5115

>  <SCORE.INTRA.POLAR>
0

>  <SCORE.INTRA.POLAR.0>
0

>  <SCORE.INTRA.REPUL>
0

>  <SCORE.INTRA.REPUL.0>
0

>  <SCORE.INTRA.SOLV>
-0.0770391

>  <SCORE.INTRA.SOLV.lig_0>
-122.812

>  <SCORE.INTRA.VDW>
2.56926

>  <SCORE.INTRA.VDW.0>
-7.46208

>  <SCORE.INTRA.norm>
-0.262525

>  <SCORE.RESTR>
0

>  <SCORE.RESTR.CAVITY>
0

>  <SCORE.RESTR.norm>
0

>  <SCORE.SYSTEM>
0

>  <SCORE.SYSTEM.CONST>
0

>  <SCORE.SYSTEM.DIHEDRAL>
0

>  <SCORE.SYSTEM.SOLV>
0

>  <SCORE.SYSTEM.norm>
0

>  <SCORE.heavy>
49

>  <SCORE.norm>
-0.265171

>  <RMSD>
10.057

$$$$
ligand
 OpenBabel11021811513D
libRbt.so/2013.1/901 2013/11/27
 49 52  0  0  0  0  0  0  0  0999 V2000
   29.6205    9.2426    6.0777 C   0  0  2  0  0  0  0  0  0  0  0  0
   28.4014    9.4138    5.4170 O   0  0  0  0  0  0  0  0  0  0  0  0
   29.3991    8.4050    7.3917 C   0  0  2  0  0  0  0  0  0  0  0  0
   28.7996    7.0557    7.0276 N   0  0  0  0  0  0  0  0  0  0  0  0
   24.4236    9.2778    0.1080 O   0  0  0  0  0  0  0  0  0  0  0  0
   28.4918    9.1782    8.3770 C   0  0  2  0  0  0  0  0  0  0  0  0
   25.1539   14.2138   -3.0451 N   0  0  0  0  0  0  0  0  0  0  0  0
   29.1082   10.5450    8.7141 C   0  0  2  0  0  0  0  0  0  0  0  0
   29.3484   11.4192    7.4111 C   0  0  2  0  0  0  0  0  0  0  0  0
   30.2033   10.5950    6.4467 O   0  0  0  0  0  0  0  0  0  0  0  0
   30.0236   12.7786    7.7544 C   0  0  0  0  0  0  0  0  0  0  0  0
   30.1549   13.6506    6.6424 N   0  0  0  0  0  0  0  0  0  0  0  0
   27.0153    9.8004    1.3265 C   0  0  2  0  0  0  0  0  0  0  0  0
   26.5617   10.4457    0.0597 N   0  0  0  0  0  0  0  0  0  0  0  0
   26.2213   10.5121    2.5263 C   0  0  0  0  0  0  0  0  0  0  0  0
   26.6237    9.8713    3.9068 C   0  0  2  0  0  0  0  0  0  0  0  0
   25.9177   10.5288    5.0164 N   0  0  0  0  0  0  0  0  0  0  0  0
   28.1399   10.0209    4.1431 C   0  0  2  0  0  0  0  0  0  0  0  0
   28.9534    9.3326    2.9738 C   0  0  2  0  0  0  0  0  0  0  0  0
   30.3816    9.5232    3.2951 O   0  0  0  0  0  0  0  0  0  0  0  0
   28.5720   10.0503    1.5807 C   0  0  1  0  0  0  0  0  0  0  0  0
   29.3032    9.4364    0.5666 O   0  0  0  0  0  0  0  0  0  0  0  0
   31.3909    9.0013    2.6853 C   0  0  1  0  0  0  0  0  0  0  0  0
   32.7539    9.0958    3.4323 C   0  0  2  0  0  0  0  0  0  0  0  0
   33.3869   10.2698    3.0310 O   0  0  0  0  0  0  0  0  0  0  0  0
   33.4018    7.9052    2.8573 C   0  0  1  0  0  0  0  0  0  0  0  0
   32.3282    6.7805    2.7316 C   0  0  2  0  0  0  0  0  0  0  0  0
   31.2402    7.5843    2.3461 O   0  0  0  0  0  0  0  0  0  0  0  0
   32.1289    5.8356    3.9175 C   0  0  0  0  0  0  0  0  0  0  0  0
   31.1102    4.9304    3.5360 O   0  0  0  0  0  0  0  0  0  0  0  0
   34.5282    7.3650    0.7447 C   0  0  2  0  0  0  0  0  0  0  0  0
   33.9598    8.3252    1.5312 O   0  0  0  0  0  0  0  0  0  0  0  0
   35.6466    6.6511    1.4453 C   0  0  1  0  0  0  0  0  0  0  0  0
   37.3357    8.5988   -2.6789 N   0  0  0  0  0  0  0  0  0  0  0  0
   23.5082   10.5745   -2.2037 O   0  0  0  0  0  0  0  0  0  0  0  0
   36.2888    5.5950    0.4643 C   0  0  2  0  0  0  0  0  0  0  0  0
   36.8122    6.2179   -0.8761 C   0  0  1  0  0  0  0  0  0  0  0  0
   35.7174    6.8900   -1.5359 C   0  0  1  0  0  0  0  0  0  0  0  0
   35.0816    7.9118   -0.6125 O   0  0  0  0  0  0  0  0  0  0  0  0
   36.2141    7.5764   -2.8832 C   0  0  0  0  0  0  0  0  0  0  0  0
   36.6490    7.5701    1.8153 N   0  0  0  0  0  0  0  0  0  0  0  0
   28.3797    8.5687    9.3373 O   0  0  0  0  0  0  0  0  0  0  0  0
   25.0014   12.1550   -1.5463 C   0  0  0  0  0  0  0  0  0  0  0  0
   37.6238    6.9892   -0.6235 O   0  0  0  0  0  0  0  0  0  0  0  0
   35.4773    4.8309    0.1797 O   0  0  0  0  0  0  0  0  0  0  0  0
   25.2001   10.0702   -0.4441 C   0  0  0  0  0  0  0  0  0  0  0  0
   25.0674   12.8300   -2.7447 C   0  0  0  0  0  0  0  0  0  0  0  0
   24.8493   10.8580   -1.8108 C   0  0  1  0  0  0  0  0  0  0  0  0
   30.3464   10.3668    9.3563 F   0  0  0  0  0  0  0  0  0  0  0  0
  1  2  1  1  0  0  0
  1 10  1  0  0  0  0
  1  3  1  0  0  0  0
  3  4  1  6  0  0  0
  3  6  1  0  0  0  0
  5 46  2  0  0  0  0
  6 42  1  1  0  0  0
  6  8  1  0  0  0  0
  7 47  1  0  0  0  0
  8  9  1  0  0  0  0
  8 49  1  6  0  0  0
  9 10  1  0  0  0  0
  9 11  1  1  0  0  0
 11 12  1  0  0  0  0
 13 14  1  6  0  0  0
 13 15  1  0  0  0  0
 13 21  1  0  0  0  0
 14 46  1  0  0  0  0
 15 16  1  0  0  0  0
 16 17  1  1  0  0  0
 16 18  1  0  0  0  0
 18  2  1  1  0  0  0
 18 19  1  0  0  0  0
 19 20  1  1  0  0  0
 19 21  1  0  0  0  0
 21 22  1  6  0  0  0
 23 20  1  1  0  0  0
 23 24  1  0  0  0  0
 23 28  1  0  0  0  0
 24 25  1  6  0  0  0
 24 26  1  0  0  0  0
 26 27  1  0  0  0  0
 26 32  1  6  0  0  0
 27 28  1  0  0  0  0
 27 29  1  1  0  0  0
 29 30  1  0  0  0  0
 31 32  1  1  0  0  0
 31 33  1  0  0  0  0
 31 39  1  0  0  0  0
 33 36  1  0  0  0  0
 33 41  1  6  0  0  0
 34 40  1  0  0  0  0
 35 48  1  0  0  0  0
 36 37  1  0  0  0  0
 36 45  1  6  0  0  0
 37 38  1  0  0  0  0
 37 44  1  1  0  0  0
 38 39  1  0  0  0  0
 38 40  1  6  0  0  0
 43 47  1  0  0  0  0
 46 48  1  0  0  0  0
 48 43  1  1  0  0  0
M  END
>  <CHROM.1>
-174.97498331,177.68241648,-174.73849227,-75.08741548,172.14391122,-165.96245327
-175.08703658,179.94030258,-57.10399771,-58.54823522,176.23371468,-76.50060298
4.19751208,30.47149750,9.10625488,2.58622761,-2.82520321,0.39555720,-1.57749158

>  <Name>
ligand

>  <RI>
0

>  <Rbt.Current_Directory>
/home/itssahil/PROJECTS/Mol_Feturizer/New_Systems/rnas/4PDQ

>  <Rbt.Executable>
rbdock ($Id: //depot/dev/client3/rdock/2013.1/src/exe/rbdock.cxx#4 $)

>  <Rbt.Library>
libRbt.so (2013.1, Build901 2013/11/27)

>  <Rbt.Parameter_File>
/export/apps/rDock/src/rDock_2013.1_src/data/scripts/dock_solv.prm

>  <Rbt.Receptor>
prm/pocket_docking_6.prm

>  <SCORE>
-18.3318

>  <SCORE.INTER>
-4.46297

>  <SCORE.INTER.CONST>
1

>  <SCORE.INTER.POLAR>
0

>  <SCORE.INTER.ROT>
13

>  <SCORE.INTER.SOLV>
17.0571

>  <SCORE.INTER.VDW>
-20.9277

>  <SCORE.INTER.norm>
-0.091081

>  <SCORE.INTRA>
-13.8689

>  <SCORE.INTRA.DIHEDRAL>
-30.8152

>  <SCORE.INTRA.DIHEDRAL.0>
34.5115

>  <SCORE.INTRA.POLAR>
0

>  <SCORE.INTRA.POLAR.0>
0

>  <SCORE.INTRA.REPUL>
0

>  <SCORE.INTRA.REPUL.0>
0

>  <SCORE.INTRA.SOLV>
-3.7545

>  <SCORE.INTRA.SOLV.lig_0>
-122.812

>  <SCORE.INTRA.VDW>
3.416

>  <SCORE.INTRA.VDW.0>
-7.46208

>  <SCORE.INTRA.norm>
-0.283038

>  <SCORE.RESTR>
0

>  <SCORE.RESTR.CAVITY>
0

>  <SCORE.RESTR.norm>
0

>  <SCORE.SYSTEM>
0

>  <SCORE.SYSTEM.CONST>
0

>  <SCORE.SYSTEM.DIHEDRAL>
0

>  <SCORE.SYSTEM.SOLV>
0

>  <SCORE.SYSTEM.norm>
0

>  <SCORE.heavy>
49

>  <SCORE.norm>
-0.374119

>  <RMSD>
10.069

$$$$
ligand
 OpenBabel11021811513D
libRbt.so/2013.1/901 2013/11/27
 49 52  0  0  0  0  0  0  0  0999 V2000
   25.2865   14.1091   10.6611 C   0  0  2  0  0  0  0  0  0  0  0  0
   25.1297   13.0585    9.7535 O   0  0  0  0  0  0  0  0  0  0  0  0
   24.4196   13.8346   11.9457 C   0  0  2  0  0  0  0  0  0  0  0  0
   24.8606   12.5217   12.5735 N   0  0  0  0  0  0  0  0  0  0  0  0
   28.1743    8.0340    9.5841 O   0  0  0  0  0  0  0  0  0  0  0  0
   22.9157   13.8110   11.5858 C   0  0  2  0  0  0  0  0  0  0  0  0
   29.9675    3.5573   12.4839 N   0  0  0  0  0  0  0  0  0  0  0  0
   22.4987   15.1394   10.9355 C   0  0  2  0  0  0  0  0  0  0  0  0
   23.3540   15.4518    9.6353 C   0  0  2  0  0  0  0  0  0  0  0  0
   24.8321   15.4119   10.0278 O   0  0  0  0  0  0  0  0  0  0  0  0
   22.9646   16.8244    9.0141 C   0  0  0  0  0  0  0  0  0  0  0  0
   23.1093   17.9191    9.9056 N   0  0  0  0  0  0  0  0  0  0  0  0
   26.0670    9.1097   11.2802 C   0  0  2  0  0  0  0  0  0  0  0  0
   26.4677    7.6721   11.2855 N   0  0  0  0  0  0  0  0  0  0  0  0
   24.9935    9.2935   10.1011 C   0  0  0  0  0  0  0  0  0  0  0  0
   24.4956   10.7857   10.0400 C   0  0  2  0  0  0  0  0  0  0  0  0
   23.5263   10.9715    8.9501 N   0  0  0  0  0  0  0  0  0  0  0  0
   25.6850   11.7357    9.7955 C   0  0  2  0  0  0  0  0  0  0  0  0
   26.7656   11.5764   10.9400 C   0  0  2  0  0  0  0  0  0  0  0  0
   27.8501   12.5258   10.6204 O   0  0  0  0  0  0  0  0  0  0  0  0
   27.3065   10.0569   10.9383 C   0  0  1  0  0  0  0  0  0  0  0  0
   28.2609    9.9392   11.9457 O   0  0  0  0  0  0  0  0  0  0  0  0
   28.0272   13.1567    9.5098 C   0  0  1  0  0  0  0  0  0  0  0  0
   28.9198   14.4299    9.5914 C   0  0  2  0  0  0  0  0  0  0  0  0
   28.0928   15.5234    9.8368 O   0  0  0  0  0  0  0  0  0  0  0  0
   29.4266   14.4312    8.2090 C   0  0  1  0  0  0  0  0  0  0  0  0
   29.7077   12.9543    7.7930 C   0  0  2  0  0  0  0  0  0  0  0  0
   28.6075   12.3536    8.4309 O   0  0  0  0  0  0  0  0  0  0  0  0
   31.0953   12.3757    8.0739 C   0  0  0  0  0  0  0  0  0  0  0  0
   31.5440   12.9850    9.2697 O   0  0  0  0  0  0  0  0  0  0  0  0
   27.1930   14.4047    7.1923 C   0  0  2  0  0  0  0  0  0  0  0  0
   28.3669   15.0785    7.3697 O   0  0  0  0  0  0  0  0  0  0  0  0
   27.3174   13.3140    6.1695 C   0  0  1  0  0  0  0  0  0  0  0  0
   22.1207   15.2525    6.5542 N   0  0  0  0  0  0  0  0  0  0  0  0
   28.4749    5.2158    9.2689 O   0  0  0  0  0  0  0  0  0  0  0  0
   25.9164   12.6136    5.9785 C   0  0  2  0  0  0  0  0  0  0  0  0
   24.7699   13.6009    5.5667 C   0  0  1  0  0  0  0  0  0  0  0  0
   24.6630   14.6344    6.5696 C   0  0  1  0  0  0  0  0  0  0  0  0
   25.9988   15.3241    6.7728 O   0  0  0  0  0  0  0  0  0  0  0  0
   23.5379   15.6866    6.1695 C   0  0  0  0  0  0  0  0  0  0  0  0
   27.7070   13.8578    4.9290 N   0  0  0  0  0  0  0  0  0  0  0  0
   22.3065   13.6512   12.5395 O   0  0  0  0  0  0  0  0  0  0  0  0
   28.7508    5.5701   11.4957 C   0  0  0  0  0  0  0  0  0  0  0  0
   25.0515   14.0836    4.5640 O   0  0  0  0  0  0  0  0  0  0  0  0
   25.6079   12.1494    6.9848 O   0  0  0  0  0  0  0  0  0  0  0  0
   27.5691    7.2708   10.3503 C   0  0  0  0  0  0  0  0  0  0  0  0
   29.1673    4.2586   11.5454 C   0  0  0  0  0  0  0  0  0  0  0  0
   27.8958    5.6936   10.4812 C   0  0  1  0  0  0  0  0  0  0  0  0
   22.6822   16.1962   11.8448 F   0  0  0  0  0  0  0  0  0  0  0  0
  1  2  1  6  0  0  0
  1 10  1  0  0  0  0
  1  3  1  0  0  0  0
  3  4  1  6  0  0  0
  3  6  1  0  0  0  0
  5 46  2  0  0  0  0
  6 42  1  1  0  0  0
  6  8  1  0  0  0  0
  7 47  1  0  0  0  0
  8  9  1  0  0  0  0
  8 49  1  1  0  0  0
  9 10  1  0  0  0  0
  9 11  1  1  0  0  0
 11 12  1  0  0  0  0
 13 14  1  6  0  0  0
 13 15  1  0  0  0  0
 13 21  1  0  0  0  0
 14 46  1  0  0  0  0
 15 16  1  0  0  0  0
 16 17  1  6  0  0  0
 16 18  1  0  0  0  0
 18  2  1  1  0  0  0
 18 19  1  0  0  0  0
 19 20  1  6  0  0  0
 19 21  1  0  0  0  0
 21 22  1  1  0  0  0
 23 20  1  1  0  0  0
 23 24  1  0  0  0  0
 23 28  1  0  0  0  0
 24 25  1  6  0  0  0
 24 26  1  0  0  0  0
 26 27  1  0  0  0  0
 26 32  1  6  0  0  0
 27 28  1  0  0  0  0
 27 29  1  1  0  0  0
 29 30  1  0  0  0  0
 31 32  1  6  0  0  0
 31 33  1  0  0  0  0
 31 39  1  0  0  0  0
 33 36  1  0  0  0  0
 33 41  1  6  0  0  0
 34 40  1  0  0  0  0
 35 48  1  0  0  0  0
 36 37  1  0  0  0  0
 36 45  1  1  0  0  0
 37 38  1  0  0  0  0
 37 44  1  6  0  0  0
 38 39  1  0  0  0  0
 38 40  1  6  0  0  0
 43 47  1  0  0  0  0
 46 48  1  0  0  0  0
 48 43  1  1  0  0  0
M  END
>  <CHROM.1>
-75.39481662,111.54007066,57.64624516,85.37907387,-12.86324418,159.63269457
-68.79851466,33.15481808,-78.25332912,83.19670548,-173.44279656,-54.06898747
-25.82009314,26.31921646,12.27225767,9.33504547,2.10528757,0.60511082,-0.58846274

>  <Name>
ligand

>  <RI>
0

>  <Rbt.Current_Directory>
/home/itssahil/PROJECTS/Mol_Feturizer/New_Systems/rnas/4PDQ

>  <Rbt.Executable>
rbdock ($Id: //depot/dev/client3/rdock/2013.1/src/exe/rbdock.cxx#4 $)

>  <Rbt.Library>
libRbt.so (2013.1, Build901 2013/11/27)

>  <Rbt.Parameter_File>
/export/apps/rDock/src/rDock_2013.1_src/data/scripts/dock_solv.prm

>  <Rbt.Receptor>
prm/blind_docking_100.prm

>  <SCORE>
15.3334

>  <SCORE.INTER>
3.67184

>  <SCORE.INTER.CONST>
1

>  <SCORE.INTER.POLAR>
0

>  <SCORE.INTER.ROT>
13

>  <SCORE.INTER.SOLV>
28.7003

>  <SCORE.INTER.VDW>
-19.3855

>  <SCORE.INTER.norm>
0.0749354

>  <SCORE.INTRA>
8.03916

>  <SCORE.INTRA.DIHEDRAL>
-10.2418

>  <SCORE.INTRA.DIHEDRAL.0>
34.5115

>  <SCORE.INTRA.POLAR>
0

>  <SCORE.INTRA.POLAR.0>
0

>  <SCORE.INTRA.REPUL>
0.153364

>  <SCORE.INTRA.REPUL.0>
0

>  <SCORE.INTRA.SOLV>
9.70944

>  <SCORE.INTRA.SOLV.lig_0>
-122.812

>  <SCORE.INTRA.VDW>
7.53852

>  <SCORE.INTRA.VDW.0>
-7.46208

>  <SCORE.INTRA.norm>
0.164065

>  <SCORE.RESTR>
3.62244

>  <SCORE.RESTR.CAVITY>
3.62244

>  <SCORE.RESTR.norm>
0.0739273

>  <SCORE.SYSTEM>
0

>  <SCORE.SYSTEM.CONST>
0

>  <SCORE.SYSTEM.DIHEDRAL>
0

>  <SCORE.SYSTEM.SOLV>
0

>  <SCORE.SYSTEM.norm>
0

>  <SCORE.heavy>
49

>  <SCORE.norm>
0.312927

>  <RMSD>
10.071

$$$$
ligand
 OpenBabel11021811513D
libRbt.so/2013.1/901 2013/11/27
 49 52  0  0  0  0  0  0  0  0999 V2000
   25.7660    8.2495    7.2001 C   0  0  2  0  0  0  0  0  0  0  0  0
   26.3275    7.7492    6.0227 O   0  0  0  0  0  0  0  0  0  0  0  0
   26.4361    9.6261    7.5647 C   0  0  2  0  0  0  0  0  0  0  0  0
   26.2230   10.6032    6.4191 N   0  0  0  0  0  0  0  0  0  0  0  0
   25.0125   10.0208    0.8981 O   0  0  0  0  0  0  0  0  0  0  0  0
   27.9402    9.4299    7.8666 C   0  0  2  0  0  0  0  0  0  0  0  0
   22.7162   11.8870   -3.3177 N   0  0  0  0  0  0  0  0  0  0  0  0
   28.1305    8.4245    9.0131 C   0  0  2  0  0  0  0  0  0  0  0  0
   27.4650    7.0220    8.6821 C   0  0  2  0  0  0  0  0  0  0  0  0
   25.9953    7.2718    8.3387 O   0  0  0  0  0  0  0  0  0  0  0  0
   27.6133    6.0272    9.8695 C   0  0  0  0  0  0  0  0  0  0  0  0
   28.9568    5.6675   10.1519 N   0  0  0  0  0  0  0  0  0  0  0  0
   25.4414    7.2873    1.8032 C   0  0  2  0  0  0  0  0  0  0  0  0
   24.9773    7.6302    0.4269 N   0  0  0  0  0  0  0  0  0  0  0  0
   24.3119    7.8016    2.8212 C   0  0  0  0  0  0  0  0  0  0  0  0
   24.7116    7.4564    4.3042 C   0  0  2  0  0  0  0  0  0  0  0  0
   23.6939    7.9406    5.2484 N   0  0  0  0  0  0  0  0  0  0  0  0
   26.0568    8.1189    4.6626 C   0  0  2  0  0  0  0  0  0  0  0  0
   27.1932    7.6357    3.6736 C   0  0  2  0  0  0  0  0  0  0  0  0
   28.4316    8.3153    4.1024 O   0  0  0  0  0  0  0  0  0  0  0  0
   26.7906    8.0591    2.1703 C   0  0  1  0  0  0  0  0  0  0  0  0
   27.8055    7.6326    1.3172 O   0  0  0  0  0  0  0  0  0  0  0  0
   29.5677    8.3163    3.4923 C   0  0  1  0  0  0  0  0  0  0  0  0
   29.9503    9.6467    2.7796 C   0  0  2  0  0  0  0  0  0  0  0  0
   29.4847    9.5848    1.4683 O   0  0  0  0  0  0  0  0  0  0  0  0
   31.4155    9.5156    2.8427 C   0  0  1  0  0  0  0  0  0  0  0  0
   31.7891    8.8990    4.2260 C   0  0  2  0  0  0  0  0  0  0  0  0
   30.7202    7.9914    4.3361 O   0  0  0  0  0  0  0  0  0  0  0  0
   32.0380    9.8497    5.3979 C   0  0  0  0  0  0  0  0  0  0  0  0
   30.8257   10.5499    5.6044 O   0  0  0  0  0  0  0  0  0  0  0  0
   31.9647    9.2274    0.4681 C   0  0  2  0  0  0  0  0  0  0  0  0
   31.8128    8.6417    1.6918 O   0  0  0  0  0  0  0  0  0  0  0  0
   32.1850    8.2161   -0.6181 C   0  0  1  0  0  0  0  0  0  0  0  0
   35.8689   11.3723   -0.3508 N   0  0  0  0  0  0  0  0  0  0  0  0
   23.5177    8.1816   -1.8241 O   0  0  0  0  0  0  0  0  0  0  0  0
   32.4030    8.9622   -1.9913 C   0  0  2  0  0  0  0  0  0  0  0  0
   33.5898    9.9868   -1.9695 C   0  0  1  0  0  0  0  0  0  0  0  0
   33.3506   10.9541   -0.9243 C   0  0  1  0  0  0  0  0  0  0  0  0
   33.1372   10.2613    0.4082 O   0  0  0  0  0  0  0  0  0  0  0  0
   34.5550   11.9909   -0.8366 C   0  0  0  0  0  0  0  0  0  0  0  0
   33.3411    7.4578   -0.3443 N   0  0  0  0  0  0  0  0  0  0  0  0
   28.3942   10.4346    8.1677 O   0  0  0  0  0  0  0  0  0  0  0  0
   23.5885   10.4165   -1.4243 C   0  0  0  0  0  0  0  0  0  0  0  0
   34.5566    9.4150   -1.7327 O   0  0  0  0  0  0  0  0  0  0  0  0
   31.4511    9.5633   -2.2273 O   0  0  0  0  0  0  0  0  0  0  0  0
   24.7992    9.0858    0.1133 C   0  0  0  0  0  0  0  0  0  0  0  0
   23.3963   10.7857   -2.7368 C   0  0  0  0  0  0  0  0  0  0  0  0
   24.3076    9.2949   -1.4119 C   0  0  1  0  0  0  0  0  0  0  0  0
   27.5417    8.9220   10.1892 F   0  0  0  0  0  0  0  0  0  0  0  0
  1  2  1  6  0  0  0
  1 10  1  0  0  0  0
  1  3  1  0  0  0  0
  3  4  1  6  0  0  0
  3  6  1  0  0  0  0
  5 46  2  0  0  0  0
  6 42  1  1  0  0  0
  6  8  1  0  0  0  0
  7 47  1  0  0  0  0
  8  9  1  0  0  0  0
  8 49  1  1  0  0  0
  9 10  1  0  0  0  0
  9 11  1  1  0  0  0
 11 12  1  0  0  0  0
 13 14  1  6  0  0  0
 13 15  1  0  0  0  0
 13 21  1  0  0  0  0
 14 46  1  0  0  0  0
 15 16  1  0  0  0  0
 16 17  1  1  0  0  0
 16 18  1  0  0  0  0
 18  2  1  1  0  0  0
 18 19  1  0  0  0  0
 19 20  1  1  0  0  0
 19 21  1  0  0  0  0
 21 22  1  6  0  0  0
 23 20  1  1  0  0  0
 23 24  1  0  0  0  0
 23 28  1  0  0  0  0
 24 25  1  6  0  0  0
 24 26  1  0  0  0  0
 26 27  1  0  0  0  0
 26 32  1  6  0  0  0
 27 28  1  0  0  0  0
 27 29  1  1  0  0  0
 29 30  1  0  0  0  0
 31 32  1  1  0  0  0
 31 33  1  0  0  0  0
 31 39  1  0  0  0  0
 33 36  1  0  0  0  0
 33 41  1  1  0  0  0
 34 40  1  0  0  0  0
 35 48  1  0  0  0  0
 36 37  1  0  0  0  0
 36 45  1  1  0  0  0
 37 38  1  0  0  0  0
 37 44  1  1  0  0  0
 38 39  1  0  0  0  0
 38 40  1  1  0  0  0
 43 47  1  0  0  0  0
 46 48  1  0  0  0  0
 48 43  1  1  0  0  0
M  END
>  <CHROM.1>
-79.09810039,-76.53497871,-64.81704685,62.44945817,-172.29248140,106.58964658
83.34865397,61.49319660,-172.51117103,-67.72791711,-179.69742000,-73.41232227
-150.10471675,28.53968865,8.93351680,2.93886956,2.07563897,0.07898417,1.73193616

>  <Name>
ligand

>  <RI>
0

>  <Rbt.Current_Directory>
/home/itssahil/PROJECTS/Mol_Feturizer/New_Systems/rnas/4PDQ

>  <Rbt.Executable>
rbdock ($Id: //depot/dev/client3/rdock/2013.1/src/exe/rbdock.cxx#4 $)

>  <Rbt.Library>
libRbt.so (2013.1, Build901 2013/11/27)

>  <Rbt.Parameter_File>
/export/apps/rDock/src/rDock_2013.1_src/data/scripts/dock_solv.prm

>  <Rbt.Receptor>
prm/pocket_docking_4.prm

>  <SCORE>
-7.10508

>  <SCORE.INTER>
-2.19596

>  <SCORE.INTER.CONST>
1

>  <SCORE.INTER.POLAR>
0

>  <SCORE.INTER.ROT>
13

>  <SCORE.INTER.SOLV>
15.3066

>  <SCORE.INTER.VDW>
-18.8329

>  <SCORE.INTER.norm>
-0.0448155

>  <SCORE.INTRA>
-4.90912

>  <SCORE.INTRA.DIHEDRAL>
-19.718

>  <SCORE.INTRA.DIHEDRAL.0>
34.5115

>  <SCORE.INTRA.POLAR>
0

>  <SCORE.INTRA.POLAR.0>
0

>  <SCORE.INTRA.REPUL>
0

>  <SCORE.INTRA.REPUL.0>
0

>  <SCORE.INTRA.SOLV>
1.5733

>  <SCORE.INTRA.SOLV.lig_0>
-122.812

>  <SCORE.INTRA.VDW>
4.16324

>  <SCORE.INTRA.VDW.0>
-7.46208

>  <SCORE.INTRA.norm>
-0.100186

>  <SCORE.RESTR>
0

>  <SCORE.RESTR.CAVITY>
0

>  <SCORE.RESTR.norm>
0

>  <SCORE.SYSTEM>
0

>  <SCORE.SYSTEM.CONST>
0

>  <SCORE.SYSTEM.DIHEDRAL>
0

>  <SCORE.SYSTEM.SOLV>
0

>  <SCORE.SYSTEM.norm>
0

>  <SCORE.heavy>
49

>  <SCORE.norm>
-0.145002

>  <RMSD>
10.105

$$$$
ligand
 OpenBabel11021811513D
libRbt.so/2013.1/901 2013/11/27
 49 52  0  0  0  0  0  0  0  0999 V2000
   29.5047    9.1212    6.1676 C   0  0  2  0  0  0  0  0  0  0  0  0
   28.3290    9.5950    5.5802 O   0  0  0  0  0  0  0  0  0  0  0  0
   29.1887    8.5442    7.5974 C   0  0  2  0  0  0  0  0  0  0  0  0
   28.1712    7.4216    7.4682 N   0  0  0  0  0  0  0  0  0  0  0  0
   24.2617    9.8560    0.0726 O   0  0  0  0  0  0  0  0  0  0  0  0
   28.6756    9.6663    8.5298 C   0  0  2  0  0  0  0  0  0  0  0  0
   22.1776   12.1734   -4.0405 N   0  0  0  0  0  0  0  0  0  0  0  0
   29.7114   10.7972    8.6287 C   0  0  2  0  0  0  0  0  0  0  0  0
   30.0575   11.4040    7.2034 C   0  0  2  0  0  0  0  0  0  0  0  0
   30.5080   10.2526    6.3024 O   0  0  0  0  0  0  0  0  0  0  0  0
   31.1474   12.5101    7.3052 C   0  0  0  0  0  0  0  0  0  0  0  0
   30.8216   13.5547    8.2089 N   0  0  0  0  0  0  0  0  0  0  0  0
   26.1970   10.8360    2.0141 C   0  0  2  0  0  0  0  0  0  0  0  0
   25.9248   11.5174    0.7146 N   0  0  0  0  0  0  0  0  0  0  0  0
   26.8639   11.9262    2.9851 C   0  0  0  0  0  0  0  0  0  0  0  0
   27.1633   11.2945    4.3957 C   0  0  2  0  0  0  0  0  0  0  0  0
   27.7934   12.2784    5.2884 N   0  0  0  0  0  0  0  0  0  0  0  0
   28.1184   10.0929    4.2507 C   0  0  2  0  0  0  0  0  0  0  0  0
   27.4917    8.9994    3.2945 C   0  0  2  0  0  0  0  0  0  0  0  0
   28.4713    7.8970    3.2283 O   0  0  0  0  0  0  0  0  0  0  0  0
   27.2558    9.6532    1.8390 C   0  0  1  0  0  0  0  0  0  0  0  0
   26.7119    8.6742    1.0111 O   0  0  0  0  0  0  0  0  0  0  0  0
   29.3421    7.6870    2.3007 C   0  0  1  0  0  0  0  0  0  0  0  0
   30.4609    8.7619    2.1688 C   0  0  2  0  0  0  0  0  0  0  0  0
   30.0323    9.7232    1.2567 O   0  0  0  0  0  0  0  0  0  0  0  0
   31.5188    7.9087    1.6022 C   0  0  1  0  0  0  0  0  0  0  0  0
   31.4508    6.5182    2.3060 C   0  0  2  0  0  0  0  0  0  0  0  0
   30.0516    6.4092    2.3997 O   0  0  0  0  0  0  0  0  0  0  0  0
   32.2668    6.3137    3.5832 C   0  0  0  0  0  0  0  0  0  0  0  0
   32.5798    4.9346    3.6369 O   0  0  0  0  0  0  0  0  0  0  0  0
   32.3284    7.7963   -0.7120 C   0  0  2  0  0  0  0  0  0  0  0  0
   31.2538    7.8268    0.1293 O   0  0  0  0  0  0  0  0  0  0  0  0
   33.0348    6.4731   -0.6771 C   0  0  1  0  0  0  0  0  0  0  0  0
   36.8719   10.1629   -1.7526 N   0  0  0  0  0  0  0  0  0  0  0  0
   25.8400   11.5649   -2.3886 O   0  0  0  0  0  0  0  0  0  0  0  0
   34.2913    6.5255   -1.6303 C   0  0  2  0  0  0  0  0  0  0  0  0
   35.2984    7.6757   -1.2815 C   0  0  1  0  0  0  0  0  0  0  0  0
   34.5986    8.9380   -1.3311 C   0  0  1  0  0  0  0  0  0  0  0  0
   33.3843    8.9135   -0.4222 O   0  0  0  0  0  0  0  0  0  0  0  0
   35.5743   10.1331   -0.9399 C   0  0  0  0  0  0  0  0  0  0  0  0
   33.4885    6.2024    0.6295 N   0  0  0  0  0  0  0  0  0  0  0  0
   28.4925    9.2314    9.5708 O   0  0  0  0  0  0  0  0  0  0  0  0
   23.6019   11.2860   -2.1189 C   0  0  0  0  0  0  0  0  0  0  0  0
   35.6846    7.5065   -0.2140 O   0  0  0  0  0  0  0  0  0  0  0  0
   33.9205    6.7236   -2.7010 O   0  0  0  0  0  0  0  0  0  0  0  0
   24.9010   10.8868   -0.1815 C   0  0  0  0  0  0  0  0  0  0  0  0
   23.1947   12.2130   -3.0521 C   0  0  0  0  0  0  0  0  0  0  0  0
   24.7098   11.7443   -1.5378 C   0  0  1  0  0  0  0  0  0  0  0  0
   30.9010   10.3088    9.1975 F   0  0  0  0  0  0  0  0  0  0  0  0
  1  2  1  1  0  0  0
  1 10  1  0  0  0  0
  1  3  1  0  0  0  0
  3  4  1  6  0  0  0
  3  6  1  0  0  0  0
  5 46  2  0  0  0  0
  6 42  1  1  0  0  0
  6  8  1  0  0  0  0
  7 47  1  0  0  0  0
  8  9  1  0  0  0  0
  8 49  1  6  0  0  0
  9 10  1  0  0  0  0
  9 11  1  1  0  0  0
 11 12  1  0  0  0  0
 13 14  1  6  0  0  0
 13 15  1  0  0  0  0
 13 21  1  0  0  0  0
 14 46  1  0  0  0  0
 15 16  1  0  0  0  0
 16 17  1  1  0  0  0
 16 18  1  0  0  0  0
 18  2  1  1  0  0  0
 18 19  1  0  0  0  0
 19 20  1  6  0  0  0
 19 21  1  0  0  0  0
 21 22  1  6  0  0  0
 23 20  1  1  0  0  0
 23 24  1  0  0  0  0
 23 28  1  0  0  0  0
 24 25  1  6  0  0  0
 24 26  1  0  0  0  0
 26 27  1  0  0  0  0
 26 32  1  6  0  0  0
 27 28  1  0  0  0  0
 27 29  1  1  0  0  0
 29 30  1  0  0  0  0
 31 32  1  1  0  0  0
 31 33  1  0  0  0  0
 31 39  1  0  0  0  0
 33 36  1  0  0  0  0
 33 41  1  1  0  0  0
 34 40  1  0  0  0  0
 35 48  1  0  0  0  0
 36 37  1  0  0  0  0
 36 45  1  6  0  0  0
 37 38  1  0  0  0  0
 37 44  1  1  0  0  0
 38 39  1  0  0  0  0
 38 40  1  1  0  0  0
 43 47  1  0  0  0  0
 46 48  1  0  0  0  0
 48 43  1  6  0  0  0
M  END
>  <CHROM.1>
-173.95112015,-140.17312898,-55.00430151,-159.45543922,-98.33510836,65.71127384
143.71506693,-151.54243088,73.41373164,52.88750313,172.28279786,-77.29101248
-107.72546843,29.68998314,9.33402352,2.39378471,-2.29203852,0.37710440,-1.64795361

>  <Name>
ligand

>  <RI>
0

>  <Rbt.Current_Directory>
/home/itssahil/PROJECTS/Mol_Feturizer/New_Systems/rnas/4PDQ

>  <Rbt.Executable>
rbdock ($Id: //depot/dev/client3/rdock/2013.1/src/exe/rbdock.cxx#4 $)

>  <Rbt.Library>
libRbt.so (2013.1, Build901 2013/11/27)

>  <Rbt.Parameter_File>
/export/apps/rDock/src/rDock_2013.1_src/data/scripts/dock_solv.prm

>  <Rbt.Receptor>
prm/pocket_docking_7.prm

>  <SCORE>
-2.74577

>  <SCORE.INTER>
-1.01405

>  <SCORE.INTER.CONST>
1

>  <SCORE.INTER.POLAR>
0

>  <SCORE.INTER.ROT>
13

>  <SCORE.INTER.SOLV>
12.6394

>  <SCORE.INTER.VDW>
-17.1558

>  <SCORE.INTER.norm>
-0.0206948

>  <SCORE.INTRA>
-1.73172

>  <SCORE.INTRA.DIHEDRAL>
-12.8259

>  <SCORE.INTRA.DIHEDRAL.0>
34.5115

>  <SCORE.INTRA.POLAR>
0

>  <SCORE.INTRA.POLAR.0>
0

>  <SCORE.INTRA.REPUL>
0

>  <SCORE.INTRA.REPUL.0>
0

>  <SCORE.INTRA.SOLV>
2.09684

>  <SCORE.INTRA.SOLV.lig_0>
-122.812

>  <SCORE.INTRA.VDW>
3.63282

>  <SCORE.INTRA.VDW.0>
-7.46208

>  <SCORE.INTRA.norm>
-0.0353412

>  <SCORE.RESTR>
0

>  <SCORE.RESTR.CAVITY>
0

>  <SCORE.RESTR.norm>
0

>  <SCORE.SYSTEM>
0

>  <SCORE.SYSTEM.CONST>
0

>  <SCORE.SYSTEM.DIHEDRAL>
0

>  <SCORE.SYSTEM.SOLV>
0

>  <SCORE.SYSTEM.norm>
0

>  <SCORE.heavy>
49

>  <SCORE.norm>
-0.056036

>  <RMSD>
10.119

$$$$
ligand
 OpenBabel11021811513D
libRbt.so/2013.1/901 2013/11/27
 49 52  0  0  0  0  0  0  0  0999 V2000
   28.0428    8.1142    5.5034 C   0  0  2  0  0  0  0  0  0  0  0  0
   27.6547    7.3079    4.4305 O   0  0  0  0  0  0  0  0  0  0  0  0
   29.5513    8.5310    5.3358 C   0  0  2  0  0  0  0  0  0  0  0  0
   29.7187    9.2793    4.0226 N   0  0  0  0  0  0  0  0  0  0  0  0
   23.2157    9.2934    0.0047 O   0  0  0  0  0  0  0  0  0  0  0  0
   30.4644    7.2841    5.3951 C   0  0  2  0  0  0  0  0  0  0  0  0
   25.4687   11.8085   -1.2557 N   0  0  0  0  0  0  0  0  0  0  0  0
   30.2630    6.5343    6.7213 C   0  0  2  0  0  0  0  0  0  0  0  0
   28.7505    6.0987    6.9268 C   0  0  2  0  0  0  0  0  0  0  0  0
   27.8828    7.3529    6.8070 O   0  0  0  0  0  0  0  0  0  0  0  0
   28.5437    5.3893    8.2964 C   0  0  0  0  0  0  0  0  0  0  0  0
   28.7177    6.2433    9.4165 N   0  0  0  0  0  0  0  0  0  0  0  0
   25.6257    7.7840    0.6279 C   0  0  2  0  0  0  0  0  0  0  0  0
   25.3169    8.3059   -0.7356 N   0  0  0  0  0  0  0  0  0  0  0  0
   25.9104    9.0563    1.5642 C   0  0  0  0  0  0  0  0  0  0  0  0
   26.2228    8.5951    3.0366 C   0  0  2  0  0  0  0  0  0  0  0  0
   26.5054    9.7512    3.9000 N   0  0  0  0  0  0  0  0  0  0  0  0
   27.4532    7.6663    3.0554 C   0  0  2  0  0  0  0  0  0  0  0  0
   27.2068    6.4017    2.1372 C   0  0  2  0  0  0  0  0  0  0  0  0
   28.4292    5.5791    2.2289 O   0  0  0  0  0  0  0  0  0  0  0  0
   26.9544    6.8979    0.6235 C   0  0  1  0  0  0  0  0  0  0  0  0
   26.7477    5.7715   -0.1692 O   0  0  0  0  0  0  0  0  0  0  0  0
   29.6199    5.9147    1.8648 C   0  0  1  0  0  0  0  0  0  0  0  0
   30.7440    4.8932    2.2075 C   0  0  2  0  0  0  0  0  0  0  0  0
   31.2613    5.2222    3.4581 O   0  0  0  0  0  0  0  0  0  0  0  0
   31.6836    5.2300    1.1251 C   0  0  1  0  0  0  0  0  0  0  0  0
   30.8558    5.5143   -0.1662 C   0  0  2  0  0  0  0  0  0  0  0  0
   29.7734    6.1835    0.4330 O   0  0  0  0  0  0  0  0  0  0  0  0
   30.5400    4.3414   -1.0954 C   0  0  0  0  0  0  0  0  0  0  0  0
   29.7683    3.4305   -0.3355 O   0  0  0  0  0  0  0  0  0  0  0  0
   33.6871    6.6451    1.0412 C   0  0  2  0  0  0  0  0  0  0  0  0
   32.4578    6.4252    1.5925 O   0  0  0  0  0  0  0  0  0  0  0  0
   34.7332    5.7344    1.6135 C   0  0  1  0  0  0  0  0  0  0  0  0
   35.9522   10.3905    2.2799 N   0  0  0  0  0  0  0  0  0  0  0  0
   22.9229    8.7286   -3.1055 O   0  0  0  0  0  0  0  0  0  0  0  0
   36.1332    6.0770    0.9711 C   0  0  2  0  0  0  0  0  0  0  0  0
   36.5656    7.5719    1.1643 C   0  0  1  0  0  0  0  0  0  0  0  0
   35.5494    8.4273    0.5978 C   0  0  1  0  0  0  0  0  0  0  0  0
   34.1917    8.1173    1.1994 O   0  0  0  0  0  0  0  0  0  0  0  0
   35.9264    9.9589    0.8108 C   0  0  0  0  0  0  0  0  0  0  0  0
   34.8322    5.9279    3.0060 N   0  0  0  0  0  0  0  0  0  0  0  0
   31.5548    7.6163    5.3122 O   0  0  0  0  0  0  0  0  0  0  0  0
   23.3856   10.8189   -2.3464 C   0  0  0  0  0  0  0  0  0  0  0  0
   36.6439    7.7828    2.2899 O   0  0  0  0  0  0  0  0  0  0  0  0
   36.0605    5.8974   -0.1628 O   0  0  0  0  0  0  0  0  0  0  0  0
   24.0322    9.0622   -0.8984 C   0  0  0  0  0  0  0  0  0  0  0  0
   24.4650   11.6682   -2.2485 C   0  0  0  0  0  0  0  0  0  0  0  0
   23.8474    9.5713   -2.4210 C   0  0  1  0  0  0  0  0  0  0  0  0
   30.6315    7.3593    7.7987 F   0  0  0  0  0  0  0  0  0  0  0  0
  1  2  1  6  0  0  0
  1 10  1  0  0  0  0
  1  3  1  0  0  0  0
  3  4  1  6  0  0  0
  3  6  1  0  0  0  0
  5 46  2  0  0  0  0
  6 42  1  1  0  0  0
  6  8  1  0  0  0  0
  7 47  1  0  0  0  0
  8  9  1  0  0  0  0
  8 49  1  1  0  0  0
  9 10  1  0  0  0  0
  9 11  1  1  0  0  0
 11 12  1  0  0  0  0
 13 14  1  6  0  0  0
 13 15  1  0  0  0  0
 13 21  1  0  0  0  0
 14 46  1  0  0  0  0
 15 16  1  0  0  0  0
 16 17  1  1  0  0  0
 16 18  1  0  0  0  0
 18  2  1  1  0  0  0
 18 19  1  0  0  0  0
 19 20  1  6  0  0  0
 19 21  1  0  0  0  0
 21 22  1  6  0  0  0
 23 20  1  6  0  0  0
 23 24  1  0  0  0  0
 23 28  1  0  0  0  0
 24 25  1  1  0  0  0
 24 26  1  0  0  0  0
 26 27  1  0  0  0  0
 26 32  1  1  0  0  0
 27 28  1  0  0  0  0
 27 29  1  1  0  0  0
 29 30  1  0  0  0  0
 31 32  1  1  0  0  0
 31 33  1  0  0  0  0
 31 39  1  0  0  0  0
 33 36  1  0  0  0  0
 33 41  1  1  0  0  0
 34 40  1  0  0  0  0
 35 48  1  0  0  0  0
 36 37  1  0  0  0  0
 36 45  1  6  0  0  0
 37 38  1  0  0  0  0
 37 44  1  1  0  0  0
 38 39  1  0  0  0  0
 38 40  1  1  0  0  0
 43 47  1  0  0  0  0
 46 48  1  0  0  0  0
 48 43  1  1  0  0  0
M  END
>  <CHROM.1>
-70.29748591,-67.17633808,67.37771372,-68.17870049,-62.26169399,174.28989377
156.27515209,61.41633924,-77.25332040,-64.94806334,-63.24428707,-153.70176925
-78.58988786,29.65949950,7.40100398,2.14532682,2.82324482,0.16687628,-1.41735975

>  <Name>
ligand

>  <RI>
0

>  <Rbt.Current_Directory>
/home/itssahil/PROJECTS/Mol_Feturizer/New_Systems/rnas/4PDQ

>  <Rbt.Executable>
rbdock ($Id: //depot/dev/client3/rdock/2013.1/src/exe/rbdock.cxx#4 $)

>  <Rbt.Library>
libRbt.so (2013.1, Build901 2013/11/27)

>  <Rbt.Parameter_File>
/export/apps/rDock/src/rDock_2013.1_src/data/scripts/dock_solv.prm

>  <Rbt.Receptor>
prm/pocket_docking_7.prm

>  <SCORE>
-13.9659

>  <SCORE.INTER>
-7.03863

>  <SCORE.INTER.CONST>
1

>  <SCORE.INTER.POLAR>
0

>  <SCORE.INTER.ROT>
13

>  <SCORE.INTER.SOLV>
20.0483

>  <SCORE.INTER.VDW>
-23.6418

>  <SCORE.INTER.norm>
-0.143645

>  <SCORE.INTRA>
-6.92729

>  <SCORE.INTRA.DIHEDRAL>
-25.1141

>  <SCORE.INTRA.DIHEDRAL.0>
34.5115

>  <SCORE.INTRA.POLAR>
0

>  <SCORE.INTRA.POLAR.0>
0

>  <SCORE.INTRA.REPUL>
0.00218279

>  <SCORE.INTRA.REPUL.0>
0

>  <SCORE.INTRA.SOLV>
7.51004

>  <SCORE.INTRA.SOLV.lig_0>
-122.812

>  <SCORE.INTRA.VDW>
1.86382

>  <SCORE.INTRA.VDW.0>
-7.46208

>  <SCORE.INTRA.norm>
-0.141373

>  <SCORE.RESTR>
0

>  <SCORE.RESTR.CAVITY>
0

>  <SCORE.RESTR.norm>
0

>  <SCORE.SYSTEM>
0

>  <SCORE.SYSTEM.CONST>
0

>  <SCORE.SYSTEM.DIHEDRAL>
0

>  <SCORE.SYSTEM.SOLV>
0

>  <SCORE.SYSTEM.norm>
0

>  <SCORE.heavy>
49

>  <SCORE.norm>
-0.285019

>  <RMSD>
10.125

$$$$
ligand
 OpenBabel11021811513D
libRbt.so/2013.1/901 2013/11/27
 49 52  0  0  0  0  0  0  0  0999 V2000
   28.7536    6.6903    7.2787 C   0  0  2  0  0  0  0  0  0  0  0  0
   27.9210    7.7100    6.8106 O   0  0  0  0  0  0  0  0  0  0  0  0
   29.9147    6.4372    6.2467 C   0  0  2  0  0  0  0  0  0  0  0  0
   30.7049    7.7229    6.0602 N   0  0  0  0  0  0  0  0  0  0  0  0
   25.3649   13.6980    9.0590 O   0  0  0  0  0  0  0  0  0  0  0  0
   29.3404    5.9279    4.9041 C   0  0  2  0  0  0  0  0  0  0  0  0
   21.9400   16.4737    9.5649 N   0  0  0  0  0  0  0  0  0  0  0  0
   28.5303    4.6401    5.1210 C   0  0  2  0  0  0  0  0  0  0  0  0
   27.3492    4.8563    6.1592 C   0  0  2  0  0  0  0  0  0  0  0  0
   27.9568    5.4094    7.4496 O   0  0  0  0  0  0  0  0  0  0  0  0
   26.5682    3.5350    6.4159 C   0  0  0  0  0  0  0  0  0  0  0  0
   25.2744    3.7310    6.9652 N   0  0  0  0  0  0  0  0  0  0  0  0
   25.3455   10.9387    8.1315 C   0  0  2  0  0  0  0  0  0  0  0  0
   24.1331   11.6350    8.6534 N   0  0  0  0  0  0  0  0  0  0  0  0
   24.8468    9.9067    7.0077 C   0  0  0  0  0  0  0  0  0  0  0  0
   26.0725    9.1418    6.3826 C   0  0  2  0  0  0  0  0  0  0  0  0
   25.6267    8.1783    5.3653 N   0  0  0  0  0  0  0  0  0  0  0  0
   26.8348    8.3695    7.4778 C   0  0  2  0  0  0  0  0  0  0  0  0
   27.3374    9.3587    8.6055 C   0  0  2  0  0  0  0  0  0  0  0  0
   28.0551    8.5295    9.5937 O   0  0  0  0  0  0  0  0  0  0  0  0
   26.0589   10.0801    9.2737 C   0  0  1  0  0  0  0  0  0  0  0  0
   26.5210   10.9394   10.2675 O   0  0  0  0  0  0  0  0  0  0  0  0
   27.5353    7.8314   10.5452 C   0  0  1  0  0  0  0  0  0  0  0  0
   26.5304    6.7278   10.1017 C   0  0  2  0  0  0  0  0  0  0  0  0
   25.2529    7.2827   10.0956 O   0  0  0  0  0  0  0  0  0  0  0  0
   26.7138    5.7986   11.2291 C   0  0  1  0  0  0  0  0  0  0  0  0
   28.2289    5.7774   11.5999 C   0  0  2  0  0  0  0  0  0  0  0  0
   28.5024    7.1430   11.4034 O   0  0  0  0  0  0  0  0  0  0  0  0
   29.1314    4.7632   10.8957 C   0  0  0  0  0  0  0  0  0  0  0  0
   28.3245    4.1202    9.9271 O   0  0  0  0  0  0  0  0  0  0  0  0
   25.7416    5.5427   13.4680 C   0  0  2  0  0  0  0  0  0  0  0  0
   25.8511    6.3088   12.3435 O   0  0  0  0  0  0  0  0  0  0  0  0
   24.9766    4.2768   13.2160 C   0  0  1  0  0  0  0  0  0  0  0  0
   22.8586    6.9011   16.7140 N   0  0  0  0  0  0  0  0  0  0  0  0
   22.0646   12.6287   10.1025 O   0  0  0  0  0  0  0  0  0  0  0  0
   24.8447    3.4680   14.5645 C   0  0  2  0  0  0  0  0  0  0  0  0
   24.1647    4.2793   15.7212 C   0  0  1  0  0  0  0  0  0  0  0  0
   24.9232    5.4864   15.9516 C   0  0  1  0  0  0  0  0  0  0  0  0
   25.0650    6.2831   14.6685 O   0  0  0  0  0  0  0  0  0  0  0  0
   24.2425    6.3648   17.0909 C   0  0  0  0  0  0  0  0  0  0  0  0
   23.6782    4.5802   12.7596 N   0  0  0  0  0  0  0  0  0  0  0  0
   30.2039    5.7130    4.1868 O   0  0  0  0  0  0  0  0  0  0  0  0
   23.2149   14.5226   10.6023 C   0  0  0  0  0  0  0  0  0  0  0  0
   23.1042    4.5648   15.3874 O   0  0  0  0  0  0  0  0  0  0  0  0
   25.9032    3.1998   14.9263 O   0  0  0  0  0  0  0  0  0  0  0  0
   24.3051   13.0569    9.0976 C   0  0  0  0  0  0  0  0  0  0  0  0
   23.0595   15.8038   10.1223 C   0  0  0  0  0  0  0  0  0  0  0  0
   22.9068   13.6743    9.6221 C   0  0  1  0  0  0  0  0  0  0  0  0
   29.3680    3.6249    5.6158 F   0  0  0  0  0  0  0  0  0  0  0  0
  1  2  1  6  0  0  0
  1 10  1  0  0  0  0
  1  3  1  0  0  0  0
  3  4  1  6  0  0  0
  3  6  1  0  0  0  0
  5 46  2  0  0  0  0
  6 42  1  6  0  0  0
  6  8  1  0  0  0  0
  7 47  1  0  0  0  0
  8  9  1  0  0  0  0
  8 49  1  1  0  0  0
  9 10  1  0  0  0  0
  9 11  1  1  0  0  0
 11 12  1  0  0  0  0
 13 14  1  1  0  0  0
 13 15  1  0  0  0  0
 13 21  1  0  0  0  0
 14 46  1  0  0  0  0
 15 16  1  0  0  0  0
 16 17  1  6  0  0  0
 16 18  1  0  0  0  0
 18  2  1  6  0  0  0
 18 19  1  0  0  0  0
 19 20  1  1  0  0  0
 19 21  1  0  0  0  0
 21 22  1  1  0  0  0
 23 20  1  6  0  0  0
 23 24  1  0  0  0  0
 23 28  1  0  0  0  0
 24 25  1  1  0  0  0
 24 26  1  0  0  0  0
 26 27  1  0  0  0  0
 26 32  1  1  0  0  0
 27 28  1  0  0  0  0
 27 29  1  6  0  0  0
 29 30  1  0  0  0  0
 31 32  1  6  0  0  0
 31 33  1  0  0  0  0
 31 39  1  0  0  0  0
 33 36  1  0  0  0  0
 33 41  1  1  0  0  0
 34 40  1  0  0  0  0
 35 48  1  0  0  0  0
 36 37  1  0  0  0  0
 36 45  1  1  0  0  0
 37 38  1  0  0  0  0
 37 44  1  6  0  0  0
 38 39  1  0  0  0  0
 38 40  1  1  0  0  0
 43 47  1  0  0  0  0
 46 48  1  0  0  0  0
 48 43  1  1  0  0  0
M  END
>  <CHROM.1>
-172.45811246,-166.37022052,-160.50397719,-147.63878386,-81.79704963,59.29491284
173.66238908,5.08604592,-68.93019428,-64.94028298,57.90750318,-134.50242531
-154.41437568,26.17255645,7.59077095,9.88992218,-0.32998136,-1.00027021,2.42400305

>  <Name>
ligand

>  <RI>
0

>  <Rbt.Current_Directory>
/home/itssahil/PROJECTS/Mol_Feturizer/New_Systems/rnas/4PDQ

>  <Rbt.Executable>
rbdock ($Id: //depot/dev/client3/rdock/2013.1/src/exe/rbdock.cxx#4 $)

>  <Rbt.Library>
libRbt.so (2013.1, Build901 2013/11/27)

>  <Rbt.Parameter_File>
/export/apps/rDock/src/rDock_2013.1_src/data/scripts/dock_solv.prm

>  <Rbt.Receptor>
prm/pocket_docking_8.prm

>  <SCORE>
-2.52109

>  <SCORE.INTER>
4.63913

>  <SCORE.INTER.CONST>
1

>  <SCORE.INTER.POLAR>
0

>  <SCORE.INTER.ROT>
13

>  <SCORE.INTER.SOLV>
9.80544

>  <SCORE.INTER.VDW>
-12.4424

>  <SCORE.INTER.norm>
0.0946761

>  <SCORE.INTRA>
-7.1776

>  <SCORE.INTRA.DIHEDRAL>
-17.1527

>  <SCORE.INTRA.DIHEDRAL.0>
34.5115

>  <SCORE.INTRA.POLAR>
0

>  <SCORE.INTRA.POLAR.0>
0

>  <SCORE.INTRA.REPUL>
0

>  <SCORE.INTRA.REPUL.0>
0

>  <SCORE.INTRA.SOLV>
-0.16422

>  <SCORE.INTRA.SOLV.lig_0>
-122.812

>  <SCORE.INTRA.VDW>
1.48084

>  <SCORE.INTRA.VDW.0>
-7.46208

>  <SCORE.INTRA.norm>
-0.146482

>  <SCORE.RESTR>
0.0173835

>  <SCORE.RESTR.CAVITY>
0.0173835

>  <SCORE.RESTR.norm>
0.000354766

>  <SCORE.SYSTEM>
0

>  <SCORE.SYSTEM.CONST>
0

>  <SCORE.SYSTEM.DIHEDRAL>
0

>  <SCORE.SYSTEM.SOLV>
0

>  <SCORE.SYSTEM.norm>
0

>  <SCORE.heavy>
49

>  <SCORE.norm>
-0.0514508

>  <RMSD>
10.126

$$$$
ligand
 OpenBabel11021811513D
libRbt.so/2013.1/901 2013/11/27
 49 52  0  0  0  0  0  0  0  0999 V2000
   25.4417   12.9913   10.4282 C   0  0  2  0  0  0  0  0  0  0  0  0
   26.3636   13.3691    9.4487 O   0  0  0  0  0  0  0  0  0  0  0  0
   25.5768   13.9386   11.6779 C   0  0  2  0  0  0  0  0  0  0  0  0
   25.3300   15.3749   11.2436 N   0  0  0  0  0  0  0  0  0  0  0  0
   25.8450   11.4736    3.9594 O   0  0  0  0  0  0  0  0  0  0  0  0
   26.9707   13.7772   12.3280 C   0  0  2  0  0  0  0  0  0  0  0  0
   25.4576   12.6489   -1.4653 N   0  0  0  0  0  0  0  0  0  0  0  0
   27.2046   12.3153   12.7400 C   0  0  2  0  0  0  0  0  0  0  0  0
   27.0745   11.3280   11.5039 C   0  0  2  0  0  0  0  0  0  0  0  0
   25.7053   11.5607   10.8624 O   0  0  0  0  0  0  0  0  0  0  0  0
   27.2574    9.8450   11.9384 C   0  0  0  0  0  0  0  0  0  0  0  0
   27.0501    8.9107   10.8905 N   0  0  0  0  0  0  0  0  0  0  0  0
   27.1040   13.7884    5.1968 C   0  0  2  0  0  0  0  0  0  0  0  0
   27.3208   13.4036    3.7714 N   0  0  0  0  0  0  0  0  0  0  0  0
   28.0143   12.8137    6.0899 C   0  0  0  0  0  0  0  0  0  0  0  0
   27.8643   13.1685    7.6163 C   0  0  2  0  0  0  0  0  0  0  0  0
   28.6784   12.2688    8.4468 N   0  0  0  0  0  0  0  0  0  0  0  0
   26.3926   13.0303    8.0544 C   0  0  2  0  0  0  0  0  0  0  0  0
   25.4658   13.9767    7.1893 C   0  0  2  0  0  0  0  0  0  0  0  0
   24.0906   13.7775    7.6876 O   0  0  0  0  0  0  0  0  0  0  0  0
   25.5879   13.5500    5.6386 C   0  0  1  0  0  0  0  0  0  0  0  0
   24.7601   14.3883    4.8958 O   0  0  0  0  0  0  0  0  0  0  0  0
   23.3785   14.6178    8.3582 C   0  0  1  0  0  0  0  0  0  0  0  0
   21.8456   14.5700    8.0889 C   0  0  2  0  0  0  0  0  0  0  0  0
   21.5581   15.4674    7.0633 O   0  0  0  0  0  0  0  0  0  0  0  0
   21.3785   15.0680    9.3935 C   0  0  1  0  0  0  0  0  0  0  0  0
   22.2880   14.4541   10.5022 C   0  0  2  0  0  0  0  0  0  0  0  0
   23.5128   14.5156    9.8133 O   0  0  0  0  0  0  0  0  0  0  0  0
   21.8808   13.1110   11.1097 C   0  0  0  0  0  0  0  0  0  0  0  0
   22.0826   12.1414   10.0989 O   0  0  0  0  0  0  0  0  0  0  0  0
   22.7045   17.1332    9.4124 C   0  0  2  0  0  0  0  0  0  0  0  0
   21.4667   16.5629    9.3328 O   0  0  0  0  0  0  0  0  0  0  0  0
   22.6993   18.3781   10.2498 C   0  0  1  0  0  0  0  0  0  0  0  0
   26.7349   18.3211    6.4079 N   0  0  0  0  0  0  0  0  0  0  0  0
   27.0948   10.5042    1.5036 O   0  0  0  0  0  0  0  0  0  0  0  0
   24.1452   19.0102   10.2563 C   0  0  2  0  0  0  0  0  0  0  0  0
   24.6970   19.3342    8.8248 C   0  0  1  0  0  0  0  0  0  0  0  0
   24.7015   18.1206    8.0420 C   0  0  1  0  0  0  0  0  0  0  0  0
   23.3210   17.4920    8.0202 O   0  0  0  0  0  0  0  0  0  0  0  0
   25.2142   18.4115    6.5637 C   0  0  0  0  0  0  0  0  0  0  0  0
   21.8108   19.3249    9.7017 N   0  0  0  0  0  0  0  0  0  0  0  0
   27.0292   14.4435   13.2549 O   0  0  0  0  0  0  0  0  0  0  0  0
   25.8879   12.3704    1.0339 C   0  0  0  0  0  0  0  0  0  0  0  0
   23.9929   20.0934    8.3293 O   0  0  0  0  0  0  0  0  0  0  0  0
   24.8675   18.2472   10.7247 O   0  0  0  0  0  0  0  0  0  0  0  0
   26.6040   12.1809    3.2815 C   0  0  0  0  0  0  0  0  0  0  0  0
   26.2004   12.3076   -0.3057 C   0  0  0  0  0  0  0  0  0  0  0  0
   26.9283   11.9034    1.7229 C   0  0  1  0  0  0  0  0  0  0  0  0
   26.2584   11.9330   13.7074 F   0  0  0  0  0  0  0  0  0  0  0  0
  1  2  1  6  0  0  0
  1 10  1  0  0  0  0
  1  3  1  0  0  0  0
  3  4  1  6  0  0  0
  3  6  1  0  0  0  0
  5 46  2  0  0  0  0
  6 42  1  1  0  0  0
  6  8  1  0  0  0  0
  7 47  1  0  0  0  0
  8  9  1  0  0  0  0
  8 49  1  1  0  0  0
  9 10  1  0  0  0  0
  9 11  1  1  0  0  0
 11 12  1  0  0  0  0
 13 14  1  6  0  0  0
 13 15  1  0  0  0  0
 13 21  1  0  0  0  0
 14 46  1  0  0  0  0
 15 16  1  0  0  0  0
 16 17  1  1  0  0  0
 16 18  1  0  0  0  0
 18  2  1  1  0  0  0
 18 19  1  0  0  0  0
 19 20  1  1  0  0  0
 19 21  1  0  0  0  0
 21 22  1  6  0  0  0
 23 20  1  6  0  0  0
 23 24  1  0  0  0  0
 23 28  1  0  0  0  0
 24 25  1  6  0  0  0
 24 26  1  0  0  0  0
 26 27  1  0  0  0  0
 26 32  1  6  0  0  0
 27 28  1  0  0  0  0
 27 29  1  6  0  0  0
 29 30  1  0  0  0  0
 31 32  1  6  0  0  0
 31 33  1  0  0  0  0
 31 39  1  0  0  0  0
 33 36  1  0  0  0  0
 33 41  1  6  0  0  0
 34 40  1  0  0  0  0
 35 48  1  0  0  0  0
 36 37  1  0  0  0  0
 36 45  1  6  0  0  0
 37 38  1  0  0  0  0
 37 44  1  6  0  0  0
 38 39  1  0  0  0  0
 38 40  1  6  0  0  0
 43 47  1  0  0  0  0
 46 48  1  0  0  0  0
 48 43  1  6  0  0  0
M  END
>  <CHROM.1>
-163.08229946,-155.73628554,175.46443693,78.17455201,109.83441185,146.76357801
-74.47064189,70.15227343,-140.17077485,87.74219668,178.72202807,-68.12690413
-40.91426761,25.09882797,14.30833573,8.09105853,-2.02758474,1.06927866,-1.48204347

>  <Name>
ligand

>  <RI>
0

>  <Rbt.Current_Directory>
/home/itssahil/PROJECTS/Mol_Feturizer/New_Systems/rnas/4PDQ

>  <Rbt.Executable>
rbdock ($Id: //depot/dev/client3/rdock/2013.1/src/exe/rbdock.cxx#4 $)

>  <Rbt.Library>
libRbt.so (2013.1, Build901 2013/11/27)

>  <Rbt.Parameter_File>
/export/apps/rDock/src/rDock_2013.1_src/data/scripts/dock_solv.prm

>  <Rbt.Receptor>
prm/blind_docking_60.prm

>  <SCORE>
6.18251

>  <SCORE.INTER>
-4.64286

>  <SCORE.INTER.CONST>
1

>  <SCORE.INTER.POLAR>
0

>  <SCORE.INTER.ROT>
13

>  <SCORE.INTER.SOLV>
25.7907

>  <SCORE.INTER.VDW>
-23.9588

>  <SCORE.INTER.norm>
-0.0947523

>  <SCORE.INTRA>
6.07326

>  <SCORE.INTRA.DIHEDRAL>
-8.11009

>  <SCORE.INTRA.DIHEDRAL.0>
34.5115

>  <SCORE.INTRA.POLAR>
0

>  <SCORE.INTRA.POLAR.0>
0

>  <SCORE.INTRA.REPUL>
0.817691

>  <SCORE.INTRA.REPUL.0>
0

>  <SCORE.INTRA.SOLV>
3.1861

>  <SCORE.INTRA.SOLV.lig_0>
-122.812

>  <SCORE.INTRA.VDW>
4.4468

>  <SCORE.INTRA.VDW.0>
-7.46208

>  <SCORE.INTRA.norm>
0.123944

>  <SCORE.RESTR>
4.75211

>  <SCORE.RESTR.CAVITY>
4.75211

>  <SCORE.RESTR.norm>
0.0969819

>  <SCORE.SYSTEM>
0

>  <SCORE.SYSTEM.CONST>
0

>  <SCORE.SYSTEM.DIHEDRAL>
0

>  <SCORE.SYSTEM.SOLV>
0

>  <SCORE.SYSTEM.norm>
0

>  <SCORE.heavy>
49

>  <SCORE.norm>
0.126174

>  <RMSD>
10.143

$$$$
ligand
 OpenBabel11021811513D
libRbt.so/2013.1/901 2013/11/27
 49 52  0  0  0  0  0  0  0  0999 V2000
   25.0666   13.2839    6.3854 C   0  0  2  0  0  0  0  0  0  0  0  0
   25.9376   12.3039    6.8680 O   0  0  0  0  0  0  0  0  0  0  0  0
   25.6886   13.9657    5.1104 C   0  0  2  0  0  0  0  0  0  0  0  0
   25.9345   12.9056    4.0482 N   0  0  0  0  0  0  0  0  0  0  0  0
   27.3363   11.8890   12.4519 O   0  0  0  0  0  0  0  0  0  0  0  0
   26.9941   14.7083    5.4794 C   0  0  2  0  0  0  0  0  0  0  0  0
   29.9880   10.9216   16.4522 N   0  0  0  0  0  0  0  0  0  0  0  0
   26.7242   15.7594    6.5674 C   0  0  2  0  0  0  0  0  0  0  0  0
   26.0937   15.1084    7.8706 C   0  0  2  0  0  0  0  0  0  0  0  0
   24.8382   14.3424    7.4494 O   0  0  0  0  0  0  0  0  0  0  0  0
   25.7718   16.1859    8.9463 C   0  0  0  0  0  0  0  0  0  0  0  0
   26.5039   16.0293   10.1519 N   0  0  0  0  0  0  0  0  0  0  0  0
   27.1954    9.9496   10.2853 C   0  0  2  0  0  0  0  0  0  0  0  0
   27.7417    9.6287   11.6365 N   0  0  0  0  0  0  0  0  0  0  0  0
   28.1958   11.0106    9.6145 C   0  0  0  0  0  0  0  0  0  0  0  0
   27.7051   11.3882    8.1671 C   0  0  2  0  0  0  0  0  0  0  0  0
   28.6027   12.3754    7.5494 N   0  0  0  0  0  0  0  0  0  0  0  0
   26.2883   11.9935    8.2246 C   0  0  2  0  0  0  0  0  0  0  0  0
   25.2763   10.9728    8.8857 C   0  0  2  0  0  0  0  0  0  0  0  0
   23.9586   11.6384    8.8869 O   0  0  0  0  0  0  0  0  0  0  0  0
   25.7656   10.6535   10.3891 C   0  0  1  0  0  0  0  0  0  0  0  0
   24.8589    9.7610   10.9557 O   0  0  0  0  0  0  0  0  0  0  0  0
   23.6818   12.8114    9.3456 C   0  0  1  0  0  0  0  0  0  0  0  0
   22.3337   12.9347   10.1151 C   0  0  2  0  0  0  0  0  0  0  0  0
   21.3445   13.2896    9.2011 O   0  0  0  0  0  0  0  0  0  0  0  0
   22.6872   14.0593   10.9973 C   0  0  1  0  0  0  0  0  0  0  0  0
   24.1660   13.8706   11.4565 C   0  0  2  0  0  0  0  0  0  0  0  0
   24.6887   13.3728   10.2493 O   0  0  0  0  0  0  0  0  0  0  0  0
   24.4306   13.0672   12.7307 C   0  0  0  0  0  0  0  0  0  0  0  0
   25.6586   13.5411   13.2502 O   0  0  0  0  0  0  0  0  0  0  0  0
   22.7901   16.5019   10.7815 C   0  0  2  0  0  0  0  0  0  0  0  0
   22.4841   15.3082   10.1941 O   0  0  0  0  0  0  0  0  0  0  0  0
   22.4752   17.6667    9.8897 C   0  0  1  0  0  0  0  0  0  0  0  0
   26.6780   16.5745   12.9197 N   0  0  0  0  0  0  0  0  0  0  0  0
   28.0220    8.8626   14.2664 O   0  0  0  0  0  0  0  0  0  0  0  0
   22.8998   19.0057   10.6085 C   0  0  2  0  0  0  0  0  0  0  0  0
   24.4116   19.0459   11.0225 C   0  0  1  0  0  0  0  0  0  0  0  0
   24.6876   17.9225   11.8870 C   0  0  1  0  0  0  0  0  0  0  0  0
   24.2875   16.6210   11.2183 O   0  0  0  0  0  0  0  0  0  0  0  0
   26.2251   17.8985   12.2977 C   0  0  0  0  0  0  0  0  0  0  0  0
   23.2046   17.5655    8.6879 N   0  0  0  0  0  0  0  0  0  0  0  0
   27.4037   15.2278    4.5474 O   0  0  0  0  0  0  0  0  0  0  0  0
   29.6772   10.3910   13.9762 C   0  0  0  0  0  0  0  0  0  0  0  0
   25.0491   18.9496   10.0728 O   0  0  0  0  0  0  0  0  0  0  0  0
   22.2884   19.1010   11.5783 O   0  0  0  0  0  0  0  0  0  0  0  0
   27.7506   10.7374   12.6463 C   0  0  0  0  0  0  0  0  0  0  0  0
   30.2049   10.2224   15.2369 C   0  0  0  0  0  0  0  0  0  0  0  0
   28.3567   10.2328   14.0568 C   0  0  1  0  0  0  0  0  0  0  0  0
   25.8277   16.7293    6.0846 F   0  0  0  0  0  0  0  0  0  0  0  0
  1  2  1  1  0  0  0
  1 10  1  0  0  0  0
  1  3  1  0  0  0  0
  3  4  1  6  0  0  0
  3  6  1  0  0  0  0
  5 46  2  0  0  0  0
  6 42  1  6  0  0  0
  6  8  1  0  0  0  0
  7 47  1  0  0  0  0
  8  9  1  0  0  0  0
  8 49  1  6  0  0  0
  9 10  1  0  0  0  0
  9 11  1  1  0  0  0
 11 12  1  0  0  0  0
 13 14  1  1  0  0  0
 13 15  1  0  0  0  0
 13 21  1  0  0  0  0
 14 46  1  0  0  0  0
 15 16  1  0  0  0  0
 16 17  1  1  0  0  0
 16 18  1  0  0  0  0
 18  2  1  6  0  0  0
 18 19  1  0  0  0  0
 19 20  1  1  0  0  0
 19 21  1  0  0  0  0
 21 22  1  6  0  0  0
 23 20  1  1  0  0  0
 23 24  1  0  0  0  0
 23 28  1  0  0  0  0
 24 25  1  6  0  0  0
 24 26  1  0  0  0  0
 26 27  1  0  0  0  0
 26 32  1  6  0  0  0
 27 28  1  0  0  0  0
 27 29  1  1  0  0  0
 29 30  1  0  0  0  0
 31 32  1  6  0  0  0
 31 33  1  0  0  0  0
 31 39  1  0  0  0  0
 33 36  1  0  0  0  0
 33 41  1  6  0  0  0
 34 40  1  0  0  0  0
 35 48  1  0  0  0  0
 36 37  1  0  0  0  0
 36 45  1  1  0  0  0
 37 38  1  0  0  0  0
 37 44  1  6  0  0  0
 38 39  1  0  0  0  0
 38 40  1  6  0  0  0
 43 47  1  0  0  0  0
 46 48  1  0  0  0  0
 48 43  1  6  0  0  0
M  END
>  <CHROM.1>
138.85026583,-152.57008105,-117.26360865,66.25027608,-52.20870477,-139.58138387
-177.86989095,-153.62042487,-177.19003136,-165.81695469,-60.36585369,-72.14593041
145.97016455,25.61745294,13.86611164,10.01986712,-2.71289828,-1.06310327
1.46933357

>  <Name>
ligand

>  <RI>
0

>  <Rbt.Current_Directory>
/home/itssahil/PROJECTS/Mol_Feturizer/New_Systems/rnas/4PDQ

>  <Rbt.Executable>
rbdock ($Id: //depot/dev/client3/rdock/2013.1/src/exe/rbdock.cxx#4 $)

>  <Rbt.Library>
libRbt.so (2013.1, Build901 2013/11/27)

>  <Rbt.Parameter_File>
/export/apps/rDock/src/rDock_2013.1_src/data/scripts/dock_solv.prm

>  <Rbt.Receptor>
prm/blind_docking_80.prm

>  <SCORE>
9.37636

>  <SCORE.INTER>
2.7343

>  <SCORE.INTER.CONST>
1

>  <SCORE.INTER.POLAR>
0

>  <SCORE.INTER.ROT>
13

>  <SCORE.INTER.SOLV>
27.3829

>  <SCORE.INTER.VDW>
-19.5714

>  <SCORE.INTER.norm>
0.0558021

>  <SCORE.INTRA>
3.30961

>  <SCORE.INTRA.DIHEDRAL>
-9.87616

>  <SCORE.INTRA.DIHEDRAL.0>
34.5115

>  <SCORE.INTRA.POLAR>
0

>  <SCORE.INTRA.POLAR.0>
0

>  <SCORE.INTRA.REPUL>
0.16587

>  <SCORE.INTRA.REPUL.0>
0

>  <SCORE.INTRA.SOLV>
13.2305

>  <SCORE.INTRA.SOLV.lig_0>
-122.812

>  <SCORE.INTRA.VDW>
0.803063

>  <SCORE.INTRA.VDW.0>
-7.46208

>  <SCORE.INTRA.norm>
0.067543

>  <SCORE.RESTR>
3.33245

>  <SCORE.RESTR.CAVITY>
3.33245

>  <SCORE.RESTR.norm>
0.0680092

>  <SCORE.SYSTEM>
0

>  <SCORE.SYSTEM.CONST>
0

>  <SCORE.SYSTEM.DIHEDRAL>
0

>  <SCORE.SYSTEM.SOLV>
0

>  <SCORE.SYSTEM.norm>
0

>  <SCORE.heavy>
49

>  <SCORE.norm>
0.191354

>  <RMSD>
10.151

$$$$
ligand
 OpenBabel11021811513D
libRbt.so/2013.1/901 2013/11/27
 49 52  0  0  0  0  0  0  0  0999 V2000
   25.4411   14.5489    7.2566 C   0  0  2  0  0  0  0  0  0  0  0  0
   26.3880   13.8844    8.0400 O   0  0  0  0  0  0  0  0  0  0  0  0
   25.3577   13.8733    5.8375 C   0  0  2  0  0  0  0  0  0  0  0  0
   24.9758   12.4108    6.0035 N   0  0  0  0  0  0  0  0  0  0  0  0
   26.2495   10.3688   12.5686 O   0  0  0  0  0  0  0  0  0  0  0  0
   26.7028   14.0239    5.0893 C   0  0  2  0  0  0  0  0  0  0  0  0
   27.3655    5.9116   11.2620 N   0  0  0  0  0  0  0  0  0  0  0  0
   27.0768   15.5081    4.9515 C   0  0  2  0  0  0  0  0  0  0  0  0
   27.1688   16.2250    6.3647 C   0  0  2  0  0  0  0  0  0  0  0  0
   25.8389   16.0043    7.0879 O   0  0  0  0  0  0  0  0  0  0  0  0
   27.4931   17.7396    6.2145 C   0  0  0  0  0  0  0  0  0  0  0  0
   26.4876   18.4768    5.5367 N   0  0  0  0  0  0  0  0  0  0  0  0
   25.9934    9.9008    9.7068 C   0  0  2  0  0  0  0  0  0  0  0  0
   25.9760    8.8051   10.7198 N   0  0  0  0  0  0  0  0  0  0  0  0
   27.3153   10.7700    9.9780 C   0  0  0  0  0  0  0  0  0  0  0  0
   27.4263   11.9409    8.9317 C   0  0  2  0  0  0  0  0  0  0  0  0
   28.6233   12.7572    9.1823 N   0  0  0  0  0  0  0  0  0  0  0  0
   26.1896   12.8571    9.0224 C   0  0  2  0  0  0  0  0  0  0  0  0
   24.8666   12.0291    8.7636 C   0  0  2  0  0  0  0  0  0  0  0  0
   23.7505   12.9901    8.8641 O   0  0  0  0  0  0  0  0  0  0  0  0
   24.7436   10.8785    9.8873 C   0  0  1  0  0  0  0  0  0  0  0  0
   23.5706   10.1670    9.6472 O   0  0  0  0  0  0  0  0  0  0  0  0
   23.5952   13.9091    9.7552 C   0  0  1  0  0  0  0  0  0  0  0  0
   22.3902   13.7155   10.7221 C   0  0  2  0  0  0  0  0  0  0  0  0
   21.2848   14.3587   10.1703 O   0  0  0  0  0  0  0  0  0  0  0  0
   22.9213   14.4482   11.8836 C   0  0  1  0  0  0  0  0  0  0  0  0
   24.4452   14.1358   11.9999 C   0  0  2  0  0  0  0  0  0  0  0  0
   24.7525   14.1232   10.6274 O   0  0  0  0  0  0  0  0  0  0  0  0
   24.8741   12.9289   12.8355 C   0  0  0  0  0  0  0  0  0  0  0  0
   26.2368   13.1339   13.1575 O   0  0  0  0  0  0  0  0  0  0  0  0
   23.6410   16.6540   11.0835 C   0  0  2  0  0  0  0  0  0  0  0  0
   22.6443   15.8995   11.6320 O   0  0  0  0  0  0  0  0  0  0  0  0
   23.8868   17.9144   11.8594 C   0  0  1  0  0  0  0  0  0  0  0  0
   23.4319   17.0081    6.6805 N   0  0  0  0  0  0  0  0  0  0  0  0
   25.2576    6.9017   12.5451 O   0  0  0  0  0  0  0  0  0  0  0  0
   25.0110   18.7589   11.1432 C   0  0  2  0  0  0  0  0  0  0  0  0
   24.6809   19.1087    9.6507 C   0  0  1  0  0  0  0  0  0  0  0  0
   24.4584   17.8812    8.9232 C   0  0  1  0  0  0  0  0  0  0  0  0
   23.3806   17.0496    9.5925 O   0  0  0  0  0  0  0  0  0  0  0  0
   24.0761   18.1907    7.4095 C   0  0  0  0  0  0  0  0  0  0  0  0
   22.7131   18.6936   11.8988 N   0  0  0  0  0  0  0  0  0  0  0  0
   26.6041   13.5624    4.0483 O   0  0  0  0  0  0  0  0  0  0  0  0
   27.3298    7.4962   13.2610 C   0  0  0  0  0  0  0  0  0  0  0  0
   23.7178   19.7327    9.6302 O   0  0  0  0  0  0  0  0  0  0  0  0
   25.9760   18.1329   11.1308 O   0  0  0  0  0  0  0  0  0  0  0  0
   26.1231    9.2067   12.1571 C   0  0  0  0  0  0  0  0  0  0  0  0
   27.7567    7.0343   12.0361 C   0  0  0  0  0  0  0  0  0  0  0  0
   26.0723    7.9163   13.1284 C   0  0  1  0  0  0  0  0  0  0  0  0
   26.1075   16.1771    4.1833 F   0  0  0  0  0  0  0  0  0  0  0  0
  1  2  1  1  0  0  0
  1 10  1  0  0  0  0
  1  3  1  0  0  0  0
  3  4  1  1  0  0  0
  3  6  1  0  0  0  0
  5 46  2  0  0  0  0
  6 42  1  6  0  0  0
  6  8  1  0  0  0  0
  7 47  1  0  0  0  0
  8  9  1  0  0  0  0
  8 49  1  6  0  0  0
  9 10  1  0  0  0  0
  9 11  1  6  0  0  0
 11 12  1  0  0  0  0
 13 14  1  1  0  0  0
 13 15  1  0  0  0  0
 13 21  1  0  0  0  0
 14 46  1  0  0  0  0
 15 16  1  0  0  0  0
 16 17  1  1  0  0  0
 16 18  1  0  0  0  0
 18  2  1  6  0  0  0
 18 19  1  0  0  0  0
 19 20  1  1  0  0  0
 19 21  1  0  0  0  0
 21 22  1  6  0  0  0
 23 20  1  1  0  0  0
 23 24  1  0  0  0  0
 23 28  1  0  0  0  0
 24 25  1  6  0  0  0
 24 26  1  0  0  0  0
 26 27  1  0  0  0  0
 26 32  1  6  0  0  0
 27 28  1  0  0  0  0
 27 29  1  6  0  0  0
 29 30  1  0  0  0  0
 31 32  1  1  0  0  0
 31 33  1  0  0  0  0
 31 39  1  0  0  0  0
 33 36  1  0  0  0  0
 33 41  1  6  0  0  0
 34 40  1  0  0  0  0
 35 48  1  0  0  0  0
 36 37  1  0  0  0  0
 36 45  1  6  0  0  0
 37 38  1  0  0  0  0
 37 44  1  1  0  0  0
 38 39  1  0  0  0  0
 38 40  1  6  0  0  0
 43 47  1  0  0  0  0
 46 48  1  0  0  0  0
 48 43  1  6  0  0  0
M  END
>  <CHROM.1>
-97.06376331,146.22647985,63.53582030,52.39860078,-43.69494760,-113.36659225
-96.03391987,-160.26424265,-129.46056596,-163.03209814,-67.53368290,52.93244666
149.20712782,25.25806021,13.82316718,9.44773034,-1.88416646,-1.10393762,2.46490971

>  <Name>
ligand

>  <RI>
0

>  <Rbt.Current_Directory>
/home/itssahil/PROJECTS/Mol_Feturizer/New_Systems/rnas/4PDQ

>  <Rbt.Executable>
rbdock ($Id: //depot/dev/client3/rdock/2013.1/src/exe/rbdock.cxx#4 $)

>  <Rbt.Library>
libRbt.so (2013.1, Build901 2013/11/27)

>  <Rbt.Parameter_File>
/export/apps/rDock/src/rDock_2013.1_src/data/scripts/dock_solv.prm

>  <Rbt.Receptor>
prm/blind_docking_100.prm

>  <SCORE>
12.4313

>  <SCORE.INTER>
-4.31312

>  <SCORE.INTER.CONST>
1

>  <SCORE.INTER.POLAR>
0

>  <SCORE.INTER.ROT>
13

>  <SCORE.INTER.SOLV>
29.8953

>  <SCORE.INTER.VDW>
-25.1072

>  <SCORE.INTER.norm>
-0.0880229

>  <SCORE.INTRA>
13.8606

>  <SCORE.INTRA.DIHEDRAL>
-1.29976

>  <SCORE.INTRA.DIHEDRAL.0>
34.5115

>  <SCORE.INTRA.POLAR>
0

>  <SCORE.INTRA.POLAR.0>
0

>  <SCORE.INTRA.REPUL>
0

>  <SCORE.INTRA.REPUL.0>
0

>  <SCORE.INTRA.SOLV>
11.891

>  <SCORE.INTRA.SOLV.lig_0>
-122.812

>  <SCORE.INTRA.VDW>
8.56499

>  <SCORE.INTRA.VDW.0>
-7.46208

>  <SCORE.INTRA.norm>
0.282869

>  <SCORE.RESTR>
2.8838

>  <SCORE.RESTR.CAVITY>
2.8838

>  <SCORE.RESTR.norm>
0.0588531

>  <SCORE.SYSTEM>
0

>  <SCORE.SYSTEM.CONST>
0

>  <SCORE.SYSTEM.DIHEDRAL>
0

>  <SCORE.SYSTEM.SOLV>
0

>  <SCORE.SYSTEM.norm>
0

>  <SCORE.heavy>
49

>  <SCORE.norm>
0.2537

>  <RMSD>
10.164

$$$$
ligand
 OpenBabel11021811513D
libRbt.so/2013.1/901 2013/11/27
 49 52  0  0  0  0  0  0  0  0999 V2000
   25.2571   13.0126    8.2722 C   0  0  2  0  0  0  0  0  0  0  0  0
   26.2594   12.0812    8.5548 O   0  0  0  0  0  0  0  0  0  0  0  0
   24.2443   12.4036    7.2327 C   0  0  2  0  0  0  0  0  0  0  0  0
   23.6399   11.1336    7.8108 N   0  0  0  0  0  0  0  0  0  0  0  0
   28.4776   11.7380   14.0242 O   0  0  0  0  0  0  0  0  0  0  0  0
   24.9543   12.1286    5.8865 C   0  0  2  0  0  0  0  0  0  0  0  0
   32.5253   10.6036   17.0655 N   0  0  0  0  0  0  0  0  0  0  0  0
   25.5734   13.4214    5.3325 C   0  0  2  0  0  0  0  0  0  0  0  0
   26.6009   14.0670    6.3559 C   0  0  2  0  0  0  0  0  0  0  0  0
   25.8709   14.2708    7.6848 O   0  0  0  0  0  0  0  0  0  0  0  0
   27.1817   15.4043    5.8120 C   0  0  0  0  0  0  0  0  0  0  0  0
   27.9194   16.1423    6.7738 N   0  0  0  0  0  0  0  0  0  0  0  0
   27.2619    9.8724   12.1491 C   0  0  2  0  0  0  0  0  0  0  0  0
   28.0256    9.4387   13.3556 N   0  0  0  0  0  0  0  0  0  0  0  0
   28.3149    9.9869   10.9431 C   0  0  0  0  0  0  0  0  0  0  0  0
   27.5852   10.4183    9.6166 C   0  0  2  0  0  0  0  0  0  0  0  0
   28.5429   10.5464    8.5083 N   0  0  0  0  0  0  0  0  0  0  0  0
   26.8860   11.7787    9.8101 C   0  0  2  0  0  0  0  0  0  0  0  0
   25.8424   11.7014   10.9966 C   0  0  2  0  0  0  0  0  0  0  0  0
   25.2273   13.0399   11.0947 O   0  0  0  0  0  0  0  0  0  0  0  0
   26.6248   11.3223   12.3551 C   0  0  1  0  0  0  0  0  0  0  0  0
   25.6916   11.2670   13.3874 O   0  0  0  0  0  0  0  0  0  0  0  0
   25.8398   14.1714   11.1792 C   0  0  1  0  0  0  0  0  0  0  0  0
   27.0251   14.2240   12.1876 C   0  0  2  0  0  0  0  0  0  0  0  0
   26.5271   14.6409   13.4197 O   0  0  0  0  0  0  0  0  0  0  0  0
   27.8194   15.2795   11.5372 C   0  0  1  0  0  0  0  0  0  0  0  0
   27.7384   15.0675    9.9939 C   0  0  2  0  0  0  0  0  0  0  0  0
   26.3917   14.6690    9.9169 O   0  0  0  0  0  0  0  0  0  0  0  0
   28.7844   14.1697    9.3315 C   0  0  0  0  0  0  0  0  0  0  0  0
   29.9294   14.9768    9.1309 O   0  0  0  0  0  0  0  0  0  0  0  0
   26.2427   17.1305   11.2041 C   0  0  2  0  0  0  0  0  0  0  0  0
   27.2285   16.5853   11.9752 O   0  0  0  0  0  0  0  0  0  0  0  0
   26.0626   18.5958   11.4716 C   0  0  1  0  0  0  0  0  0  0  0  0
   22.5897   14.8252   11.4819 N   0  0  0  0  0  0  0  0  0  0  0  0
   29.2635    8.4742   15.4802 O   0  0  0  0  0  0  0  0  0  0  0  0
   24.8780   19.1474   10.5870 C   0  0  2  0  0  0  0  0  0  0  0  0
   23.5209   18.3946   10.8120 C   0  0  1  0  0  0  0  0  0  0  0  0
   23.7170   16.9901   10.5394 C   0  0  1  0  0  0  0  0  0  0  0  0
   24.8524   16.4349   11.3782 O   0  0  0  0  0  0  0  0  0  0  0  0
   22.3728   16.1781   10.7981 C   0  0  0  0  0  0  0  0  0  0  0  0
   25.7297   18.8020   12.8255 N   0  0  0  0  0  0  0  0  0  0  0  0
   24.1905   11.7260    5.1376 O   0  0  0  0  0  0  0  0  0  0  0  0
   30.6531   10.2675   15.3654 C   0  0  0  0  0  0  0  0  0  0  0  0
   23.2156   18.5208   11.9113 O   0  0  0  0  0  0  0  0  0  0  0  0
   25.1584   19.0006    9.4811 O   0  0  0  0  0  0  0  0  0  0  0  0
   28.5957   10.5207   14.2235 C   0  0  0  0  0  0  0  0  0  0  0  0
   31.2019   10.3421   16.6260 C   0  0  0  0  0  0  0  0  0  0  0  0
   29.3798    9.8954   15.4907 C   0  0  1  0  0  0  0  0  0  0  0  0
   24.5625   14.3640    5.0736 F   0  0  0  0  0  0  0  0  0  0  0  0
  1  2  1  6  0  0  0
  1 10  1  0  0  0  0
  1  3  1  0  0  0  0
  3  4  1  1  0  0  0
  3  6  1  0  0  0  0
  5 46  2  0  0  0  0
  6 42  1  6  0  0  0
  6  8  1  0  0  0  0
  7 47  1  0  0  0  0
  8  9  1  0  0  0  0
  8 49  1  1  0  0  0
  9 10  1  0  0  0  0
  9 11  1  6  0  0  0
 11 12  1  0  0  0  0
 13 14  1  1  0  0  0
 13 15  1  0  0  0  0
 13 21  1  0  0  0  0
 14 46  1  0  0  0  0
 15 16  1  0  0  0  0
 16 17  1  6  0  0  0
 16 18  1  0  0  0  0
 18  2  1  6  0  0  0
 18 19  1  0  0  0  0
 19 20  1  1  0  0  0
 19 21  1  0  0  0  0
 21 22  1  1  0  0  0
 23 20  1  6  0  0  0
 23 24  1  0  0  0  0
 23 28  1  0  0  0  0
 24 25  1  1  0  0  0
 24 26  1  0  0  0  0
 26 27  1  0  0  0  0
 26 32  1  6  0  0  0
 27 28  1  0  0  0  0
 27 29  1  1  0  0  0
 29 30  1  0  0  0  0
 31 32  1  1  0  0  0
 31 33  1  0  0  0  0
 31 39  1  0  0  0  0
 33 36  1  0  0  0  0
 33 41  1  1  0  0  0
 34 40  1  0  0  0  0
 35 48  1  0  0  0  0
 36 37  1  0  0  0  0
 36 45  1  6  0  0  0
 37 38  1  0  0  0  0
 37 44  1  1  0  0  0
 38 39  1  0  0  0  0
 38 40  1  1  0  0  0
 43 47  1  0  0  0  0
 46 48  1  0  0  0  0
 48 43  1  6  0  0  0
M  END
>  <CHROM.1>
-140.57352743,163.40987457,169.50831814,90.10157587,-51.62433352,-45.46009248
-90.94682656,-82.42016834,-161.01973914,-139.61416229,175.43006925,-88.90622811
176.24736637,26.55231220,13.67992767,10.61871056,-3.04222009,-1.07446587
0.84259681

>  <Name>
ligand

>  <RI>
0

>  <Rbt.Current_Directory>
/home/itssahil/PROJECTS/Mol_Feturizer/New_Systems/rnas/4PDQ

>  <Rbt.Executable>
rbdock ($Id: //depot/dev/client3/rdock/2013.1/src/exe/rbdock.cxx#4 $)

>  <Rbt.Library>
libRbt.so (2013.1, Build901 2013/11/27)

>  <Rbt.Parameter_File>
/export/apps/rDock/src/rDock_2013.1_src/data/scripts/dock_solv.prm

>  <Rbt.Receptor>
prm/blind_docking_80.prm

>  <SCORE>
12.7888

>  <SCORE.INTER>
-1.2838

>  <SCORE.INTER.CONST>
1

>  <SCORE.INTER.POLAR>
0

>  <SCORE.INTER.ROT>
13

>  <SCORE.INTER.SOLV>
37.8762

>  <SCORE.INTER.VDW>
-25.7479

>  <SCORE.INTER.norm>
-0.0261999

>  <SCORE.INTRA>
7.12963

>  <SCORE.INTRA.DIHEDRAL>
-9.605

>  <SCORE.INTRA.DIHEDRAL.0>
34.5115

>  <SCORE.INTRA.POLAR>
0

>  <SCORE.INTRA.POLAR.0>
0

>  <SCORE.INTRA.REPUL>
0.278609

>  <SCORE.INTRA.REPUL.0>
0

>  <SCORE.INTRA.SOLV>
4.65005

>  <SCORE.INTRA.SOLV.lig_0>
-122.812

>  <SCORE.INTRA.VDW>
8.21406

>  <SCORE.INTRA.VDW.0>
-7.46208

>  <SCORE.INTRA.norm>
0.145503

>  <SCORE.RESTR>
6.94294

>  <SCORE.RESTR.CAVITY>
6.94294

>  <SCORE.RESTR.norm>
0.141693

>  <SCORE.SYSTEM>
0

>  <SCORE.SYSTEM.CONST>
0

>  <SCORE.SYSTEM.DIHEDRAL>
0

>  <SCORE.SYSTEM.SOLV>
0

>  <SCORE.SYSTEM.norm>
0

>  <SCORE.heavy>
49

>  <SCORE.norm>
0.260995

>  <RMSD>
10.172

$$$$
ligand
 OpenBabel11021811513D
libRbt.so/2013.1/901 2013/11/27
 49 52  0  0  0  0  0  0  0  0999 V2000
   28.9475    9.2448    5.6617 C   0  0  2  0  0  0  0  0  0  0  0  0
   28.8019    8.5115    4.4814 O   0  0  0  0  0  0  0  0  0  0  0  0
   30.0502    8.5801    6.5670 C   0  0  2  0  0  0  0  0  0  0  0  0
   31.3643    8.5392    5.8029 N   0  0  0  0  0  0  0  0  0  0  0  0
   23.6179    8.6116    0.1071 O   0  0  0  0  0  0  0  0  0  0  0  0
   29.6071    7.1642    7.0037 C   0  0  2  0  0  0  0  0  0  0  0  0
   24.2721   12.0547   -4.0537 N   0  0  0  0  0  0  0  0  0  0  0  0
   28.2684    7.2290    7.7556 C   0  0  2  0  0  0  0  0  0  0  0  0
   27.1300    7.8963    6.8734 C   0  0  2  0  0  0  0  0  0  0  0  0
   27.6333    9.2685    6.4214 O   0  0  0  0  0  0  0  0  0  0  0  0
   25.7925    8.0091    7.6607 C   0  0  0  0  0  0  0  0  0  0  0  0
   25.8034    9.0070    8.6696 N   0  0  0  0  0  0  0  0  0  0  0  0
   26.4157    8.8460    0.8762 C   0  0  2  0  0  0  0  0  0  0  0  0
   25.8633    9.4196   -0.3858 N   0  0  0  0  0  0  0  0  0  0  0  0
   26.4115   10.0227    1.9679 C   0  0  0  0  0  0  0  0  0  0  0  0
   26.9595    9.4946    3.3460 C   0  0  2  0  0  0  0  0  0  0  0  0
   26.9795   10.5691    4.3495 N   0  0  0  0  0  0  0  0  0  0  0  0
   28.3967    8.9619    3.1804 C   0  0  2  0  0  0  0  0  0  0  0  0
   28.4369    7.8013    2.1059 C   0  0  2  0  0  0  0  0  0  0  0  0
   29.8430    7.3584    2.0275 O   0  0  0  0  0  0  0  0  0  0  0  0
   27.9333    8.3849    0.6892 C   0  0  1  0  0  0  0  0  0  0  0  0
   27.9835    7.3518   -0.2435 O   0  0  0  0  0  0  0  0  0  0  0  0
   30.8379    8.0162    1.5374 C   0  0  1  0  0  0  0  0  0  0  0  0
   30.8066    8.2393   -0.0033 C   0  0  2  0  0  0  0  0  0  0  0  0
   31.4808    7.1811   -0.6078 O   0  0  0  0  0  0  0  0  0  0  0  0
   31.5890    9.4854   -0.0602 C   0  0  1  0  0  0  0  0  0  0  0  0
   31.1798   10.3721    1.1563 C   0  0  2  0  0  0  0  0  0  0  0  0
   31.0376    9.3491    2.1111 O   0  0  0  0  0  0  0  0  0  0  0  0
   30.0150   11.3475    0.9806 C   0  0  0  0  0  0  0  0  0  0  0  0
   29.9476   12.1034    2.1751 O   0  0  0  0  0  0  0  0  0  0  0  0
   33.9695   10.0706    0.0577 C   0  0  2  0  0  0  0  0  0  0  0  0
   33.0319    9.0819   -0.0244 O   0  0  0  0  0  0  0  0  0  0  0  0
   33.9446   10.9728   -1.1409 C   0  0  1  0  0  0  0  0  0  0  0  0
   39.0533   10.8995    0.9026 N   0  0  0  0  0  0  0  0  0  0  0  0
   22.8273    9.2101   -2.5765 O   0  0  0  0  0  0  0  0  0  0  0  0
   35.0831   12.0567   -1.0037 C   0  0  2  0  0  0  0  0  0  0  0  0
   36.5163   11.4453   -0.8276 C   0  0  1  0  0  0  0  0  0  0  0  0
   36.5178   10.5900    0.3359 C   0  0  1  0  0  0  0  0  0  0  0  0
   35.4304    9.5378    0.2288 O   0  0  0  0  0  0  0  0  0  0  0  0
   37.9447    9.9116    0.5284 C   0  0  0  0  0  0  0  0  0  0  0  0
   34.1897   10.2272   -2.3115 N   0  0  0  0  0  0  0  0  0  0  0  0
   30.4042    6.7196    7.6917 O   0  0  0  0  0  0  0  0  0  0  0  0
   23.6424   11.1619   -1.7483 C   0  0  0  0  0  0  0  0  0  0  0  0
   36.7555   10.8122   -1.7547 O   0  0  0  0  0  0  0  0  0  0  0  0
   34.8715   12.6810   -0.0610 O   0  0  0  0  0  0  0  0  0  0  0  0
   24.4007    9.2114   -0.6433 C   0  0  0  0  0  0  0  0  0  0  0  0
   23.4307   11.8296   -2.9338 C   0  0  0  0  0  0  0  0  0  0  0  0
   23.9529    9.8985   -2.0357 C   0  0  1  0  0  0  0  0  0  0  0  0
   28.4148    7.9889    8.9296 F   0  0  0  0  0  0  0  0  0  0  0  0
  1  2  1  6  0  0  0
  1 10  1  0  0  0  0
  1  3  1  0  0  0  0
  3  4  1  6  0  0  0
  3  6  1  0  0  0  0
  5 46  2  0  0  0  0
  6 42  1  1  0  0  0
  6  8  1  0  0  0  0
  7 47  1  0  0  0  0
  8  9  1  0  0  0  0
  8 49  1  1  0  0  0
  9 10  1  0  0  0  0
  9 11  1  1  0  0  0
 11 12  1  0  0  0  0
 13 14  1  6  0  0  0
 13 15  1  0  0  0  0
 13 21  1  0  0  0  0
 14 46  1  0  0  0  0
 15 16  1  0  0  0  0
 16 17  1  1  0  0  0
 16 18  1  0  0  0  0
 18  2  1  1  0  0  0
 18 19  1  0  0  0  0
 19 20  1  6  0  0  0
 19 21  1  0  0  0  0
 21 22  1  6  0  0  0
 23 20  1  1  0  0  0
 23 24  1  0  0  0  0
 23 28  1  0  0  0  0
 24 25  1  6  0  0  0
 24 26  1  0  0  0  0
 26 27  1  0  0  0  0
 26 32  1  1  0  0  0
 27 28  1  0  0  0  0
 27 29  1  6  0  0  0
 29 30  1  0  0  0  0
 31 32  1  6  0  0  0
 31 33  1  0  0  0  0
 31 39  1  0  0  0  0
 33 36  1  0  0  0  0
 33 41  1  6  0  0  0
 34 40  1  0  0  0  0
 35 48  1  0  0  0  0
 36 37  1  0  0  0  0
 36 45  1  1  0  0  0
 37 38  1  0  0  0  0
 37 44  1  6  0  0  0
 38 39  1  0  0  0  0
 38 40  1  6  0  0  0
 43 47  1  0  0  0  0
 46 48  1  0  0  0  0
 48 43  1  1  0  0  0
M  END
>  <CHROM.1>
-151.00057743,-62.22032315,72.72897192,-95.62396402,-69.75133242,-67.90232952
-174.11077500,-174.41815148,-62.91967373,67.62864440,-59.12555268,-68.61751200
-28.20903474,29.76030491,9.42700681,1.86580462,-2.77993187,-0.06364515,-1.31533154

>  <Name>
ligand

>  <RI>
0

>  <Rbt.Current_Directory>
/home/itssahil/PROJECTS/Mol_Feturizer/New_Systems/rnas/4PDQ

>  <Rbt.Executable>
rbdock ($Id: //depot/dev/client3/rdock/2013.1/src/exe/rbdock.cxx#4 $)

>  <Rbt.Library>
libRbt.so (2013.1, Build901 2013/11/27)

>  <Rbt.Parameter_File>
/export/apps/rDock/src/rDock_2013.1_src/data/scripts/dock_solv.prm

>  <Rbt.Receptor>
prm/pocket_docking_4.prm

>  <SCORE>
-10.5062

>  <SCORE.INTER>
-1.27861

>  <SCORE.INTER.CONST>
1

>  <SCORE.INTER.POLAR>
0

>  <SCORE.INTER.ROT>
13

>  <SCORE.INTER.SOLV>
11.6754

>  <SCORE.INTER.VDW>
-17.0109

>  <SCORE.INTER.norm>
-0.0260941

>  <SCORE.INTRA>
-9.22756

>  <SCORE.INTRA.DIHEDRAL>
-26.5688

>  <SCORE.INTRA.DIHEDRAL.0>
34.5115

>  <SCORE.INTRA.POLAR>
0

>  <SCORE.INTRA.POLAR.0>
0

>  <SCORE.INTRA.REPUL>
0

>  <SCORE.INTRA.REPUL.0>
0

>  <SCORE.INTRA.SOLV>
1.8447

>  <SCORE.INTRA.SOLV.lig_0>
-122.812

>  <SCORE.INTRA.VDW>
3.13447

>  <SCORE.INTRA.VDW.0>
-7.46208

>  <SCORE.INTRA.norm>
-0.188318

>  <SCORE.RESTR>
0

>  <SCORE.RESTR.CAVITY>
0

>  <SCORE.RESTR.norm>
0

>  <SCORE.SYSTEM>
0

>  <SCORE.SYSTEM.CONST>
0

>  <SCORE.SYSTEM.DIHEDRAL>
0

>  <SCORE.SYSTEM.SOLV>
0

>  <SCORE.SYSTEM.norm>
0

>  <SCORE.heavy>
49

>  <SCORE.norm>
-0.214412

>  <RMSD>
10.175

$$$$
ligand
 OpenBabel11021811513D
libRbt.so/2013.1/901 2013/11/27
 49 52  0  0  0  0  0  0  0  0999 V2000
   27.5540   14.6428    6.7546 C   0  0  2  0  0  0  0  0  0  0  0  0
   26.8865   14.7208    7.9795 O   0  0  0  0  0  0  0  0  0  0  0  0
   27.1539   15.8692    5.8530 C   0  0  2  0  0  0  0  0  0  0  0  0
   27.5180   17.1577    6.5739 N   0  0  0  0  0  0  0  0  0  0  0  0
   26.4650   11.0735   12.3792 O   0  0  0  0  0  0  0  0  0  0  0  0
   25.6458   15.8192    5.5138 C   0  0  2  0  0  0  0  0  0  0  0  0
   28.3056   10.1739   14.2355 N   0  0  0  0  0  0  0  0  0  0  0  0
   25.2988   14.5009    4.8045 C   0  0  2  0  0  0  0  0  0  0  0  0
   25.6904   13.2389    5.6842 C   0  0  2  0  0  0  0  0  0  0  0  0
   27.1736   13.3590    6.0391 O   0  0  0  0  0  0  0  0  0  0  0  0
   25.3876   11.9081    4.9367 C   0  0  0  0  0  0  0  0  0  0  0  0
   26.2449   11.6625    3.8328 N   0  0  0  0  0  0  0  0  0  0  0  0
   26.2873   10.7033    9.4972 C   0  0  2  0  0  0  0  0  0  0  0  0
   26.1542    9.5843   10.4756 N   0  0  0  0  0  0  0  0  0  0  0  0
   27.5792   11.5527    9.9285 C   0  0  0  0  0  0  0  0  0  0  0  0
   27.8096   12.7467    8.9288 C   0  0  2  0  0  0  0  0  0  0  0  0
   28.9792   13.5449    9.3250 N   0  0  0  0  0  0  0  0  0  0  0  0
   26.5771   13.6727    8.9099 C   0  0  2  0  0  0  0  0  0  0  0  0
   25.2831   12.8642    8.4919 C   0  0  2  0  0  0  0  0  0  0  0  0
   24.1697   13.8336    8.4967 O   0  0  0  0  0  0  0  0  0  0  0  0
   25.0327   11.6888    9.5677 C   0  0  1  0  0  0  0  0  0  0  0  0
   23.8867   10.9949    9.1872 O   0  0  0  0  0  0  0  0  0  0  0  0
   23.8197   14.6090    9.4657 C   0  0  1  0  0  0  0  0  0  0  0  0
   22.4707   14.2566   10.1591 C   0  0  2  0  0  0  0  0  0  0  0  0
   21.4554   14.9566    9.5117 O   0  0  0  0  0  0  0  0  0  0  0  0
   22.7551   14.8186   11.4900 C   0  0  1  0  0  0  0  0  0  0  0  0
   24.2456   14.5162   11.8369 C   0  0  2  0  0  0  0  0  0  0  0  0
   24.7929   14.7104   10.5558 O   0  0  0  0  0  0  0  0  0  0  0  0
   24.5689   13.2062   12.5569 C   0  0  0  0  0  0  0  0  0  0  0  0
   25.6926   13.4708   13.3754 O   0  0  0  0  0  0  0  0  0  0  0  0
   23.3554   17.0718   10.7243 C   0  0  2  0  0  0  0  0  0  0  0  0
   22.4667   16.2866   11.4006 O   0  0  0  0  0  0  0  0  0  0  0  0
   23.5031   18.4264   11.3523 C   0  0  1  0  0  0  0  0  0  0  0  0
   22.8977   16.9341    6.3334 N   0  0  0  0  0  0  0  0  0  0  0  0
   25.2694    7.6695   12.1966 O   0  0  0  0  0  0  0  0  0  0  0  0
   24.5020   19.2951   10.4934 C   0  0  2  0  0  0  0  0  0  0  0  0
   24.0730   19.4482    8.9930 C   0  0  1  0  0  0  0  0  0  0  0  0
   23.9470   18.1336    8.4084 C   0  0  1  0  0  0  0  0  0  0  0  0
   22.9910   17.2772    9.2169 O   0  0  0  0  0  0  0  0  0  0  0  0
   23.4693   18.2395    6.8939 C   0  0  0  0  0  0  0  0  0  0  0  0
   22.2581   19.0864   11.3750 N   0  0  0  0  0  0  0  0  0  0  0  0
   25.3889   16.6955    4.8264 O   0  0  0  0  0  0  0  0  0  0  0  0
   27.3184    8.1371   13.0585 C   0  0  0  0  0  0  0  0  0  0  0  0
   23.0505   19.9689    8.9607 O   0  0  0  0  0  0  0  0  0  0  0  0
   25.5250   18.7692   10.4932 O   0  0  0  0  0  0  0  0  0  0  0  0
   26.2735    9.9351   11.9287 C   0  0  0  0  0  0  0  0  0  0  0  0
   27.8859    8.8246   14.1079 C   0  0  0  0  0  0  0  0  0  0  0  0
   26.0949    8.6254   12.8585 C   0  0  1  0  0  0  0  0  0  0  0  0
   25.9926   14.4165    3.5843 F   0  0  0  0  0  0  0  0  0  0  0  0
  1  2  1  1  0  0  0
  1 10  1  0  0  0  0
  1  3  1  0  0  0  0
  3  4  1  1  0  0  0
  3  6  1  0  0  0  0
  5 46  2  0  0  0  0
  6 42  1  6  0  0  0
  6  8  1  0  0  0  0
  7 47  1  0  0  0  0
  8  9  1  0  0  0  0
  8 49  1  6  0  0  0
  9 10  1  0  0  0  0
  9 11  1  6  0  0  0
 11 12  1  0  0  0  0
 13 14  1  1  0  0  0
 13 15  1  0  0  0  0
 13 21  1  0  0  0  0
 14 46  1  0  0  0  0
 15 16  1  0  0  0  0
 16 17  1  1  0  0  0
 16 18  1  0  0  0  0
 18  2  1  6  0  0  0
 18 19  1  0  0  0  0
 19 20  1  1  0  0  0
 19 21  1  0  0  0  0
 21 22  1  6  0  0  0
 23 20  1  6  0  0  0
 23 24  1  0  0  0  0
 23 28  1  0  0  0  0
 24 25  1  6  0  0  0
 24 26  1  0  0  0  0
 26 27  1  0  0  0  0
 26 32  1  6  0  0  0
 27 28  1  0  0  0  0
 27 29  1  6  0  0  0
 29 30  1  0  0  0  0
 31 32  1  1  0  0  0
 31 33  1  0  0  0  0
 31 39  1  0  0  0  0
 33 36  1  0  0  0  0
 33 41  1  6  0  0  0
 34 40  1  0  0  0  0
 35 48  1  0  0  0  0
 36 37  1  0  0  0  0
 36 45  1  6  0  0  0
 37 38  1  0  0  0  0
 37 44  1  1  0  0  0
 38 39  1  0  0  0  0
 38 40  1  6  0  0  0
 43 47  1  0  0  0  0
 46 48  1  0  0  0  0
 48 43  1  6  0  0  0
M  END
>  <CHROM.1>
157.07006119,39.29286762,69.91988538,47.07996065,-53.80484015,-109.91391022
-73.92214086,-148.16613456,-144.23301813,-162.04766272,-67.67895119,-156.81696303
151.08203838,25.23228041,14.15784484,9.23005848,-2.18786692,-1.10561391,2.08202797

>  <Name>
ligand

>  <RI>
0

>  <Rbt.Current_Directory>
/home/itssahil/PROJECTS/Mol_Feturizer/New_Systems/rnas/4PDQ

>  <Rbt.Executable>
rbdock ($Id: //depot/dev/client3/rdock/2013.1/src/exe/rbdock.cxx#4 $)

>  <Rbt.Library>
libRbt.so (2013.1, Build901 2013/11/27)

>  <Rbt.Parameter_File>
/export/apps/rDock/src/rDock_2013.1_src/data/scripts/dock_solv.prm

>  <Rbt.Receptor>
prm/blind_docking_60.prm

>  <SCORE>
22.0811

>  <SCORE.INTER>
17.5493

>  <SCORE.INTER.CONST>
1

>  <SCORE.INTER.POLAR>
0

>  <SCORE.INTER.ROT>
13

>  <SCORE.INTER.SOLV>
30.3408

>  <SCORE.INTER.VDW>
-10.6807

>  <SCORE.INTER.norm>
0.358149

>  <SCORE.INTRA>
2.87334

>  <SCORE.INTRA.DIHEDRAL>
-9.82162

>  <SCORE.INTRA.DIHEDRAL.0>
34.5115

>  <SCORE.INTRA.POLAR>
0

>  <SCORE.INTRA.POLAR.0>
0

>  <SCORE.INTRA.REPUL>
0

>  <SCORE.INTRA.REPUL.0>
0

>  <SCORE.INTRA.SOLV>
7.03872

>  <SCORE.INTRA.SOLV.lig_0>
-122.812

>  <SCORE.INTRA.VDW>
4.26479

>  <SCORE.INTRA.VDW.0>
-7.46208

>  <SCORE.INTRA.norm>
0.0586396

>  <SCORE.RESTR>
1.65849

>  <SCORE.RESTR.CAVITY>
1.65849

>  <SCORE.RESTR.norm>
0.0338468

>  <SCORE.SYSTEM>
0

>  <SCORE.SYSTEM.CONST>
0

>  <SCORE.SYSTEM.DIHEDRAL>
0

>  <SCORE.SYSTEM.SOLV>
0

>  <SCORE.SYSTEM.norm>
0

>  <SCORE.heavy>
49

>  <SCORE.norm>
0.450635

>  <RMSD>
10.183

$$$$
ligand
 OpenBabel11021811513D
libRbt.so/2013.1/901 2013/11/27
 49 52  0  0  0  0  0  0  0  0999 V2000
   27.5570   15.4836    7.0871 C   0  0  2  0  0  0  0  0  0  0  0  0
   26.6434   15.3143    8.1305 O   0  0  0  0  0  0  0  0  0  0  0  0
   27.0789   16.6520    6.1471 C   0  0  2  0  0  0  0  0  0  0  0  0
   26.9617   17.9308    6.9617 N   0  0  0  0  0  0  0  0  0  0  0  0
   25.9957   11.3595   12.2358 O   0  0  0  0  0  0  0  0  0  0  0  0
   25.7352   16.2865    5.4742 C   0  0  2  0  0  0  0  0  0  0  0  0
   28.3281    7.2665   15.0816 N   0  0  0  0  0  0  0  0  0  0  0  0
   25.8733   14.9817    4.6741 C   0  0  2  0  0  0  0  0  0  0  0  0
   26.3565   13.7786    5.5899 C   0  0  2  0  0  0  0  0  0  0  0  0
   27.6565   14.2053    6.2742 O   0  0  0  0  0  0  0  0  0  0  0  0
   26.5475   12.4746    4.7624 C   0  0  0  0  0  0  0  0  0  0  0  0
   26.9140   11.3481    5.5439 N   0  0  0  0  0  0  0  0  0  0  0  0
   26.7387   11.1775    9.4270 C   0  0  2  0  0  0  0  0  0  0  0  0
   26.6936    9.9976   10.3395 N   0  0  0  0  0  0  0  0  0  0  0  0
   27.6891   12.2702   10.1192 C   0  0  0  0  0  0  0  0  0  0  0  0
   27.8131   13.5468    9.2063 C   0  0  2  0  0  0  0  0  0  0  0  0
   28.6655   14.5640    9.8393 N   0  0  0  0  0  0  0  0  0  0  0  0
   26.4224   14.1660    8.9625 C   0  0  2  0  0  0  0  0  0  0  0  0
   25.4578   13.1117    8.2836 C   0  0  2  0  0  0  0  0  0  0  0  0
   24.1661   13.7988    8.0872 O   0  0  0  0  0  0  0  0  0  0  0  0
   25.2961   11.8439    9.2675 C   0  0  1  0  0  0  0  0  0  0  0  0
   24.4386   10.9323    8.6565 O   0  0  0  0  0  0  0  0  0  0  0  0
   23.6227   14.6687    8.8689 C   0  0  1  0  0  0  0  0  0  0  0  0
   22.1442   15.0357    8.5467 C   0  0  2  0  0  0  0  0  0  0  0  0
   22.1478   16.1271    7.6813 O   0  0  0  0  0  0  0  0  0  0  0  0
   21.7131   15.4180    9.9017 C   0  0  1  0  0  0  0  0  0  0  0  0
   22.3728   14.4346   10.9172 C   0  0  2  0  0  0  0  0  0  0  0  0
   23.6246   14.3073   10.2884 O   0  0  0  0  0  0  0  0  0  0  0  0
   21.6217   13.1506   11.2722 C   0  0  0  0  0  0  0  0  0  0  0  0
   22.0245   12.1808   10.3236 O   0  0  0  0  0  0  0  0  0  0  0  0
   23.4913   17.0937   10.1333 C   0  0  2  0  0  0  0  0  0  0  0  0
   22.1508   16.8375   10.1010 O   0  0  0  0  0  0  0  0  0  0  0  0
   24.0212   17.1505   11.5358 C   0  0  1  0  0  0  0  0  0  0  0  0
   24.7701   21.2848    9.0949 N   0  0  0  0  0  0  0  0  0  0  0  0
   26.1914    7.7640   11.7382 O   0  0  0  0  0  0  0  0  0  0  0  0
   25.5597   17.4997   11.5001 C   0  0  2  0  0  0  0  0  0  0  0  0
   25.8837   18.8404   10.7542 C   0  0  1  0  0  0  0  0  0  0  0  0
   25.3733   18.7579    9.4058 C   0  0  1  0  0  0  0  0  0  0  0  0
   23.8940   18.4224    9.4124 O   0  0  0  0  0  0  0  0  0  0  0  0
   25.6418   20.1175    8.6231 C   0  0  0  0  0  0  0  0  0  0  0  0
   23.3601   18.1621   12.2611 N   0  0  0  0  0  0  0  0  0  0  0  0
   25.4304   17.1312    4.7672 O   0  0  0  0  0  0  0  0  0  0  0  0
   27.4231    8.8562   13.3034 C   0  0  0  0  0  0  0  0  0  0  0  0
   25.3503   19.6966   11.3019 O   0  0  0  0  0  0  0  0  0  0  0  0
   26.1036   16.6629   10.9282 O   0  0  0  0  0  0  0  0  0  0  0  0
   26.2956   10.2543   11.7623 C   0  0  0  0  0  0  0  0  0  0  0  0
   27.4152    7.7342   14.1015 C   0  0  0  0  0  0  0  0  0  0  0  0
   26.2812    8.8831   12.6174 C   0  0  1  0  0  0  0  0  0  0  0  0
   26.8123   15.1504    3.6411 F   0  0  0  0  0  0  0  0  0  0  0  0
  1  2  1  1  0  0  0
  1 10  1  0  0  0  0
  1  3  1  0  0  0  0
  3  4  1  1  0  0  0
  3  6  1  0  0  0  0
  5 46  2  0  0  0  0
  6 42  1  6  0  0  0
  6  8  1  0  0  0  0
  7 47  1  0  0  0  0
  8  9  1  0  0  0  0
  8 49  1  6  0  0  0
  9 10  1  0  0  0  0
  9 11  1  6  0  0  0
 11 12  1  0  0  0  0
 13 14  1  1  0  0  0
 13 15  1  0  0  0  0
 13 21  1  0  0  0  0
 14 46  1  0  0  0  0
 15 16  1  0  0  0  0
 16 17  1  1  0  0  0
 16 18  1  0  0  0  0
 18  2  1  6  0  0  0
 18 19  1  0  0  0  0
 19 20  1  1  0  0  0
 19 21  1  0  0  0  0
 21 22  1  6  0  0  0
 23 20  1  6  0  0  0
 23 24  1  0  0  0  0
 23 28  1  0  0  0  0
 24 25  1  6  0  0  0
 24 26  1  0  0  0  0
 26 27  1  0  0  0  0
 26 32  1  1  0  0  0
 27 28  1  0  0  0  0
 27 29  1  6  0  0  0
 29 30  1  0  0  0  0
 31 32  1  1  0  0  0
 31 33  1  0  0  0  0
 31 39  1  0  0  0  0
 33 36  1  0  0  0  0
 33 41  1  1  0  0  0
 34 40  1  0  0  0  0
 35 48  1  0  0  0  0
 36 37  1  0  0  0  0
 36 45  1  6  0  0  0
 37 38  1  0  0  0  0
 37 44  1  1  0  0  0
 38 39  1  0  0  0  0
 38 40  1  1  0  0  0
 43 47  1  0  0  0  0
 46 48  1  0  0  0  0
 48 43  1  6  0  0  0
M  END
>  <CHROM.1>
158.70082428,37.01293958,-176.96900281,54.01090345,-35.81408822,-169.31806555
-65.67559393,88.89390480,-96.12749990,-71.51358755,-175.52642905,-63.77414320
159.11671755,25.40733384,14.38067911,9.24739579,-1.95794630,-1.11372704,2.37761236

>  <Name>
ligand

>  <RI>
0

>  <Rbt.Current_Directory>
/home/itssahil/PROJECTS/Mol_Feturizer/New_Systems/rnas/4PDQ

>  <Rbt.Executable>
rbdock ($Id: //depot/dev/client3/rdock/2013.1/src/exe/rbdock.cxx#4 $)

>  <Rbt.Library>
libRbt.so (2013.1, Build901 2013/11/27)

>  <Rbt.Parameter_File>
/export/apps/rDock/src/rDock_2013.1_src/data/scripts/dock_solv.prm

>  <Rbt.Receptor>
prm/blind_docking_80.prm

>  <SCORE>
24.7084

>  <SCORE.INTER>
21.3631

>  <SCORE.INTER.CONST>
1

>  <SCORE.INTER.POLAR>
0

>  <SCORE.INTER.ROT>
13

>  <SCORE.INTER.SOLV>
31.7844

>  <SCORE.INTER.VDW>
-8.61941

>  <SCORE.INTER.norm>
0.435981

>  <SCORE.INTRA>
-0.780228

>  <SCORE.INTRA.DIHEDRAL>
-17.0286

>  <SCORE.INTRA.DIHEDRAL.0>
34.5115

>  <SCORE.INTRA.POLAR>
0

>  <SCORE.INTRA.POLAR.0>
0

>  <SCORE.INTRA.REPUL>
0.222298

>  <SCORE.INTRA.REPUL.0>
0

>  <SCORE.INTRA.SOLV>
5.64459

>  <SCORE.INTRA.SOLV.lig_0>
-122.812

>  <SCORE.INTRA.VDW>
3.80028

>  <SCORE.INTRA.VDW.0>
-7.46208

>  <SCORE.INTRA.norm>
-0.015923

>  <SCORE.RESTR>
4.12555

>  <SCORE.RESTR.CAVITY>
4.12555

>  <SCORE.RESTR.norm>
0.084195

>  <SCORE.SYSTEM>
0

>  <SCORE.SYSTEM.CONST>
0

>  <SCORE.SYSTEM.DIHEDRAL>
0

>  <SCORE.SYSTEM.SOLV>
0

>  <SCORE.SYSTEM.norm>
0

>  <SCORE.heavy>
49

>  <SCORE.norm>
0.504253

>  <RMSD>
10.189

$$$$
ligand
 OpenBabel11021811513D
libRbt.so/2013.1/901 2013/11/27
 49 52  0  0  0  0  0  0  0  0999 V2000
   27.9675   15.6390    7.1330 C   0  0  2  0  0  0  0  0  0  0  0  0
   27.0764   15.4834    8.1978 O   0  0  0  0  0  0  0  0  0  0  0  0
   27.2144   16.2560    5.8964 C   0  0  2  0  0  0  0  0  0  0  0  0
   26.6226   17.5996    6.2928 N   0  0  0  0  0  0  0  0  0  0  0  0
   25.6428   11.0879   11.5839 O   0  0  0  0  0  0  0  0  0  0  0  0
   26.1217   15.2849    5.3916 C   0  0  2  0  0  0  0  0  0  0  0  0
   27.0004    9.1091   14.6417 N   0  0  0  0  0  0  0  0  0  0  0  0
   26.7405   13.9293    5.0164 C   0  0  2  0  0  0  0  0  0  0  0  0
   27.5116   13.2758    6.2403 C   0  0  2  0  0  0  0  0  0  0  0  0
   28.5424   14.2905    6.7384 O   0  0  0  0  0  0  0  0  0  0  0  0
   28.1823   11.9305    5.8376 C   0  0  0  0  0  0  0  0  0  0  0  0
   27.3242   11.0526    5.1256 N   0  0  0  0  0  0  0  0  0  0  0  0
   26.3721   11.2432    8.7699 C   0  0  2  0  0  0  0  0  0  0  0  0
   26.0477    9.9612    9.4615 N   0  0  0  0  0  0  0  0  0  0  0  0
   27.4160   12.0286    9.7025 C   0  0  0  0  0  0  0  0  0  0  0  0
   27.8336   13.3905    9.0324 C   0  0  2  0  0  0  0  0  0  0  0  0
   28.7749   14.1292    9.8870 N   0  0  0  0  0  0  0  0  0  0  0  0
   26.5923   14.2758    8.8038 C   0  0  2  0  0  0  0  0  0  0  0  0
   25.5393   13.5281    7.8899 C   0  0  2  0  0  0  0  0  0  0  0  0
   24.4016   14.4545    7.7262 O   0  0  0  0  0  0  0  0  0  0  0  0
   25.0793   12.1702    8.6287 C   0  0  1  0  0  0  0  0  0  0  0  0
   24.1481   11.5316    7.8134 O   0  0  0  0  0  0  0  0  0  0  0  0
   23.7538   15.0613    8.6617 C   0  0  1  0  0  0  0  0  0  0  0  0
   22.2203   15.2083    8.4352 C   0  0  2  0  0  0  0  0  0  0  0  0
   21.9930   16.4178    7.7829 O   0  0  0  0  0  0  0  0  0  0  0  0
   21.7950   15.2624    9.8438 C   0  0  1  0  0  0  0  0  0  0  0  0
   22.6633   14.2499   10.6529 C   0  0  2  0  0  0  0  0  0  0  0  0
   23.8865   14.4618    9.9916 O   0  0  0  0  0  0  0  0  0  0  0  0
   22.1642   12.8099   10.7804 C   0  0  0  0  0  0  0  0  0  0  0  0
   20.9545   12.8732   11.5121 O   0  0  0  0  0  0  0  0  0  0  0  0
   23.2672   17.1203   10.4798 C   0  0  2  0  0  0  0  0  0  0  0  0
   21.9890   16.6797   10.2910 O   0  0  0  0  0  0  0  0  0  0  0  0
   23.4112   17.9066   11.7494 C   0  0  1  0  0  0  0  0  0  0  0  0
   26.5068   20.5963    8.5192 N   0  0  0  0  0  0  0  0  0  0  0  0
   25.2325    7.6393   10.4555 O   0  0  0  0  0  0  0  0  0  0  0  0
   24.8956   18.4263   11.8775 C   0  0  2  0  0  0  0  0  0  0  0  0
   25.3665   19.2931   10.6585 C   0  0  1  0  0  0  0  0  0  0  0  0
   25.2279   18.5127    9.4513 C   0  0  1  0  0  0  0  0  0  0  0  0
   23.8077   18.0002    9.3047 O   0  0  0  0  0  0  0  0  0  0  0  0
   25.6543   19.3702    8.1801 C   0  0  0  0  0  0  0  0  0  0  0  0
   22.5566   19.0271   11.7229 N   0  0  0  0  0  0  0  0  0  0  0  0
   25.6180   15.7367    4.4705 O   0  0  0  0  0  0  0  0  0  0  0  0
   26.3734    8.2632   12.3180 C   0  0  0  0  0  0  0  0  0  0  0  0
   24.6857   20.2144   10.5858 O   0  0  0  0  0  0  0  0  0  0  0  0
   25.5925   17.5122   11.9224 O   0  0  0  0  0  0  0  0  0  0  0  0
   25.6942   10.0450   10.9164 C   0  0  0  0  0  0  0  0  0  0  0  0
   26.1367    8.8253   13.5525 C   0  0  0  0  0  0  0  0  0  0  0  0
   25.3577    8.5831   11.5171 C   0  0  1  0  0  0  0  0  0  0  0  0
   27.6550   14.0958    3.9612 F   0  0  0  0  0  0  0  0  0  0  0  0
  1  2  1  1  0  0  0
  1 10  1  0  0  0  0
  1  3  1  0  0  0  0
  3  4  1  1  0  0  0
  3  6  1  0  0  0  0
  5 46  2  0  0  0  0
  6 42  1  6  0  0  0
  6  8  1  0  0  0  0
  7 47  1  0  0  0  0
  8  9  1  0  0  0  0
  8 49  1  6  0  0  0
  9 10  1  0  0  0  0
  9 11  1  6  0  0  0
 11 12  1  0  0  0  0
 13 14  1  1  0  0  0
 13 15  1  0  0  0  0
 13 21  1  0  0  0  0
 14 46  1  0  0  0  0
 15 16  1  0  0  0  0
 16 17  1  1  0  0  0
 16 18  1  0  0  0  0
 18  2  1  6  0  0  0
 18 19  1  0  0  0  0
 19 20  1  1  0  0  0
 19 21  1  0  0  0  0
 21 22  1  6  0  0  0
 23 20  1  6  0  0  0
 23 24  1  0  0  0  0
 23 28  1  0  0  0  0
 24 25  1  6  0  0  0
 24 26  1  0  0  0  0
 26 27  1  0  0  0  0
 26 32  1  1  0  0  0
 27 28  1  0  0  0  0
 27 29  1  6  0  0  0
 29 30  1  0  0  0  0
 31 32  1  6  0  0  0
 31 33  1  0  0  0  0
 31 39  1  0  0  0  0
 33 36  1  0  0  0  0
 33 41  1  6  0  0  0
 34 40  1  0  0  0  0
 35 48  1  0  0  0  0
 36 37  1  0  0  0  0
 36 45  1  6  0  0  0
 37 38  1  0  0  0  0
 37 44  1  6  0  0  0
 38 39  1  0  0  0  0
 38 40  1  6  0  0  0
 43 47  1  0  0  0  0
 46 48  1  0  0  0  0
 48 43  1  1  0  0  0
M  END
>  <CHROM.1>
113.17564496,46.95297820,-47.64392262,48.03261457,-51.62191584,-142.82409453
-72.24363149,-64.14051191,-135.54654623,18.44008589,-161.04587255,-156.09077322
167.87690208,25.34543590,14.37327132,9.05937421,-1.85048604,-0.97969961,2.73386412

>  <Name>
ligand

>  <RI>
0

>  <Rbt.Current_Directory>
/home/itssahil/PROJECTS/Mol_Feturizer/New_Systems/rnas/4PDQ

>  <Rbt.Executable>
rbdock ($Id: //depot/dev/client3/rdock/2013.1/src/exe/rbdock.cxx#4 $)

>  <Rbt.Library>
libRbt.so (2013.1, Build901 2013/11/27)

>  <Rbt.Parameter_File>
/export/apps/rDock/src/rDock_2013.1_src/data/scripts/dock_solv.prm

>  <Rbt.Receptor>
prm/blind_docking_100.prm

>  <SCORE>
28.1842

>  <SCORE.INTER>
9.91355

>  <SCORE.INTER.CONST>
1

>  <SCORE.INTER.POLAR>
0

>  <SCORE.INTER.ROT>
13

>  <SCORE.INTER.SOLV>
36.2832

>  <SCORE.INTER.VDW>
-17.752

>  <SCORE.INTER.norm>
0.202317

>  <SCORE.INTRA>
11.7875

>  <SCORE.INTRA.DIHEDRAL>
-4.51912

>  <SCORE.INTRA.DIHEDRAL.0>
34.5115

>  <SCORE.INTRA.POLAR>
0

>  <SCORE.INTRA.POLAR.0>
0

>  <SCORE.INTRA.REPUL>
0

>  <SCORE.INTRA.REPUL.0>
0

>  <SCORE.INTRA.SOLV>
5.77646

>  <SCORE.INTRA.SOLV.lig_0>
-122.812

>  <SCORE.INTRA.VDW>
11.1588

>  <SCORE.INTRA.VDW.0>
-7.46208

>  <SCORE.INTRA.norm>
0.240561

>  <SCORE.RESTR>
6.48314

>  <SCORE.RESTR.CAVITY>
6.48314

>  <SCORE.RESTR.norm>
0.132309

>  <SCORE.SYSTEM>
0

>  <SCORE.SYSTEM.CONST>
0

>  <SCORE.SYSTEM.DIHEDRAL>
0

>  <SCORE.SYSTEM.SOLV>
0

>  <SCORE.SYSTEM.norm>
0

>  <SCORE.heavy>
49

>  <SCORE.norm>
0.575187

>  <RMSD>
10.192

$$$$
ligand
 OpenBabel11021811513D
libRbt.so/2013.1/901 2013/11/27
 49 52  0  0  0  0  0  0  0  0999 V2000
   24.0826   16.4080    6.2147 C   0  0  2  0  0  0  0  0  0  0  0  0
   23.8036   15.5623    7.2912 O   0  0  0  0  0  0  0  0  0  0  0  0
   25.2939   15.8348    5.3893 C   0  0  2  0  0  0  0  0  0  0  0  0
   24.9429   14.4415    4.8914 N   0  0  0  0  0  0  0  0  0  0  0  0
   28.4739   17.0449   11.9163 O   0  0  0  0  0  0  0  0  0  0  0  0
   26.5758   15.8186    6.2544 C   0  0  2  0  0  0  0  0  0  0  0  0
   27.1457   14.6720   13.6004 N   0  0  0  0  0  0  0  0  0  0  0  0
   26.8985   17.2329    6.7617 C   0  0  2  0  0  0  0  0  0  0  0  0
   25.6972   17.8459    7.5987 C   0  0  2  0  0  0  0  0  0  0  0  0
   24.4432   17.7920    6.7241 O   0  0  0  0  0  0  0  0  0  0  0  0
   26.0090   19.2985    8.0617 C   0  0  0  0  0  0  0  0  0  0  0  0
   24.9914   19.8751    8.8654 N   0  0  0  0  0  0  0  0  0  0  0  0
   25.7866   17.1566   10.8024 C   0  0  2  0  0  0  0  0  0  0  0  0
   26.0874   17.4151   12.2411 N   0  0  0  0  0  0  0  0  0  0  0  0
   24.2007   17.3209   10.6176 C   0  0  0  0  0  0  0  0  0  0  0  0
   23.7964   17.0878    9.1141 C   0  0  2  0  0  0  0  0  0  0  0  0
   22.3426   17.2159    8.9354 N   0  0  0  0  0  0  0  0  0  0  0  0
   24.2160   15.6751    8.6613 C   0  0  2  0  0  0  0  0  0  0  0  0
   25.7761   15.4781    8.8348 C   0  0  2  0  0  0  0  0  0  0  0  0
   26.0746   14.1089    8.3707 O   0  0  0  0  0  0  0  0  0  0  0  0
   26.1540   15.6574   10.3926 C   0  0  1  0  0  0  0  0  0  0  0  0
   27.5280   15.4728   10.5255 O   0  0  0  0  0  0  0  0  0  0  0  0
   25.6152   13.0067    8.8576 C   0  0  1  0  0  0  0  0  0  0  0  0
   26.0728   12.6658   10.3063 C   0  0  2  0  0  0  0  0  0  0  0  0
   27.2334   11.9002   10.2248 O   0  0  0  0  0  0  0  0  0  0  0  0
   24.9145   11.8548   10.7168 C   0  0  1  0  0  0  0  0  0  0  0  0
   23.6277   12.5130   10.1299 C   0  0  2  0  0  0  0  0  0  0  0  0
   24.1540   12.9081    8.8868 O   0  0  0  0  0  0  0  0  0  0  0  0
   22.9113   13.5730   10.9678 C   0  0  0  0  0  0  0  0  0  0  0  0
   23.9216   14.4170   11.4871 O   0  0  0  0  0  0  0  0  0  0  0  0
   26.0760    9.6953   10.8227 C   0  0  2  0  0  0  0  0  0  0  0  0
   25.1539   10.4742   10.1849 O   0  0  0  0  0  0  0  0  0  0  0  0
   25.7231    8.2383   10.7611 C   0  0  1  0  0  0  0  0  0  0  0  0
   27.4338   11.2849   14.7290 N   0  0  0  0  0  0  0  0  0  0  0  0
   27.4182   19.0116   14.4868 O   0  0  0  0  0  0  0  0  0  0  0  0
   26.8000    7.4051   11.5588 C   0  0  2  0  0  0  0  0  0  0  0  0
   26.9602    7.8511   13.0536 C   0  0  1  0  0  0  0  0  0  0  0  0
   27.3088    9.2521   13.0865 C   0  0  1  0  0  0  0  0  0  0  0  0
   26.2879   10.0762   12.3251 O   0  0  0  0  0  0  0  0  0  0  0  0
   27.4389    9.7600   14.5892 C   0  0  0  0  0  0  0  0  0  0  0  0
   24.4677    8.0198   11.3631 N   0  0  0  0  0  0  0  0  0  0  0  0
   27.4479   15.4375    5.6216 O   0  0  0  0  0  0  0  0  0  0  0  0
   26.8093   16.8575   14.8728 C   0  0  0  0  0  0  0  0  0  0  0  0
   25.9526    7.7062   13.5839 O   0  0  0  0  0  0  0  0  0  0  0  0
   27.8215    7.5644   11.0545 O   0  0  0  0  0  0  0  0  0  0  0  0
   27.5229   17.3154   12.6633 C   0  0  0  0  0  0  0  0  0  0  0  0
   27.2048   15.5481   14.7148 C   0  0  0  0  0  0  0  0  0  0  0  0
   27.6878   17.6334   14.2391 C   0  0  1  0  0  0  0  0  0  0  0  0
   27.1539   18.0856    5.6731 F   0  0  0  0  0  0  0  0  0  0  0  0
  1  2  1  1  0  0  0
  1 10  1  0  0  0  0
  1  3  1  0  0  0  0
  3  4  1  1  0  0  0
  3  6  1  0  0  0  0
  5 46  2  0  0  0  0
  6 42  1  6  0  0  0
  6  8  1  0  0  0  0
  7 47  1  0  0  0  0
  8  9  1  0  0  0  0
  8 49  1  6  0  0  0
  9 10  1  0  0  0  0
  9 11  1  6  0  0  0
 11 12  1  0  0  0  0
 13 14  1  1  0  0  0
 13 15  1  0  0  0  0
 13 21  1  0  0  0  0
 14 46  1  0  0  0  0
 15 16  1  0  0  0  0
 16 17  1  1  0  0  0
 16 18  1  0  0  0  0
 18  2  1  6  0  0  0
 18 19  1  0  0  0  0
 19 20  1  1  0  0  0
 19 21  1  0  0  0  0
 21 22  1  6  0  0  0
 23 20  1  1  0  0  0
 23 24  1  0  0  0  0
 23 28  1  0  0  0  0
 24 25  1  6  0  0  0
 24 26  1  0  0  0  0
 26 27  1  0  0  0  0
 26 32  1  6  0  0  0
 27 28  1  0  0  0  0
 27 29  1  1  0  0  0
 29 30  1  0  0  0  0
 31 32  1  1  0  0  0
 31 33  1  0  0  0  0
 31 39  1  0  0  0  0
 33 36  1  0  0  0  0
 33 41  1  1  0  0  0
 34 40  1  0  0  0  0
 35 48  1  0  0  0  0
 36 37  1  0  0  0  0
 36 45  1  6  0  0  0
 37 38  1  0  0  0  0
 37 44  1  1  0  0  0
 38 39  1  0  0  0  0
 38 40  1  1  0  0  0
 43 47  1  0  0  0  0
 46 48  1  0  0  0  0
 48 43  1  1  0  0  0
M  END
>  <CHROM.1>
97.50635375,53.21065362,-177.37721772,179.85651510,-60.93499935,-66.13641870
75.02315338,44.08755065,148.14332489,-164.54185006,-74.24692897,-173.62150723
110.37057615,25.88402908,14.17947357,10.24015882,1.92158279,-1.29995076,-0.13940592

>  <Name>
ligand

>  <RI>
0

>  <Rbt.Current_Directory>
/home/itssahil/PROJECTS/Mol_Feturizer/New_Systems/rnas/4PDQ

>  <Rbt.Executable>
rbdock ($Id: //depot/dev/client3/rdock/2013.1/src/exe/rbdock.cxx#4 $)

>  <Rbt.Library>
libRbt.so (2013.1, Build901 2013/11/27)

>  <Rbt.Parameter_File>
/export/apps/rDock/src/rDock_2013.1_src/data/scripts/dock_solv.prm

>  <Rbt.Receptor>
prm/blind_docking_60.prm

>  <SCORE>
14.563

>  <SCORE.INTER>
1.18516

>  <SCORE.INTER.CONST>
1

>  <SCORE.INTER.POLAR>
0

>  <SCORE.INTER.ROT>
13

>  <SCORE.INTER.SOLV>
28.0718

>  <SCORE.INTER.VDW>
-20.8338

>  <SCORE.INTER.norm>
0.0241869

>  <SCORE.INTRA>
13.0785

>  <SCORE.INTRA.DIHEDRAL>
-20.579

>  <SCORE.INTRA.DIHEDRAL.0>
34.5115

>  <SCORE.INTRA.POLAR>
0

>  <SCORE.INTRA.POLAR.0>
0

>  <SCORE.INTRA.REPUL>
0.00703038

>  <SCORE.INTRA.REPUL.0>
0

>  <SCORE.INTRA.SOLV>
13.5013

>  <SCORE.INTRA.SOLV.lig_0>
-122.812

>  <SCORE.INTRA.VDW>
16.5822

>  <SCORE.INTRA.VDW.0>
-7.46208

>  <SCORE.INTRA.norm>
0.266908

>  <SCORE.RESTR>
0.299319

>  <SCORE.RESTR.CAVITY>
0.299319

>  <SCORE.RESTR.norm>
0.00610855

>  <SCORE.SYSTEM>
0

>  <SCORE.SYSTEM.CONST>
0

>  <SCORE.SYSTEM.DIHEDRAL>
0

>  <SCORE.SYSTEM.SOLV>
0

>  <SCORE.SYSTEM.norm>
0

>  <SCORE.heavy>
49

>  <SCORE.norm>
0.297203

>  <RMSD>
10.197

$$$$
ligand
 OpenBabel11021811513D
libRbt.so/2013.1/901 2013/11/27
 49 52  0  0  0  0  0  0  0  0999 V2000
   28.7771   12.0849    6.9218 C   0  0  2  0  0  0  0  0  0  0  0  0
   29.3100   12.4311    5.6776 O   0  0  0  0  0  0  0  0  0  0  0  0
   29.5669   12.8275    8.0628 C   0  0  2  0  0  0  0  0  0  0  0  0
   29.4667   14.3288    7.8426 N   0  0  0  0  0  0  0  0  0  0  0  0
   24.4261    9.0845    2.2425 O   0  0  0  0  0  0  0  0  0  0  0  0
   31.0403   12.3584    8.0913 C   0  0  2  0  0  0  0  0  0  0  0  0
   25.3754   12.2884   -1.8893 N   0  0  0  0  0  0  0  0  0  0  0  0
   31.1152   10.8370    8.2948 C   0  0  2  0  0  0  0  0  0  0  0  0
   30.3269   10.0527    7.1621 C   0  0  2  0  0  0  0  0  0  0  0  0
   28.8934   10.5864    7.1355 O   0  0  0  0  0  0  0  0  0  0  0  0
   30.3602    8.5160    7.4055 C   0  0  0  0  0  0  0  0  0  0  0  0
   31.6641    7.9573    7.3659 N   0  0  0  0  0  0  0  0  0  0  0  0
   26.9784   10.4342    2.6150 C   0  0  2  0  0  0  0  0  0  0  0  0
   26.4001   10.1336    1.2726 N   0  0  0  0  0  0  0  0  0  0  0  0
   26.8390   12.0171    2.8424 C   0  0  0  0  0  0  0  0  0  0  0  0
   27.4061   12.4206    4.2545 C   0  0  2  0  0  0  0  0  0  0  0  0
   27.3025   13.8719    4.4666 N   0  0  0  0  0  0  0  0  0  0  0  0
   28.8908   12.0209    4.3677 C   0  0  2  0  0  0  0  0  0  0  0  0
   29.0641   10.4644    4.1440 C   0  0  2  0  0  0  0  0  0  0  0  0
   30.5074   10.1849    4.2789 O   0  0  0  0  0  0  0  0  0  0  0  0
   28.5366   10.0881    2.6669 C   0  0  1  0  0  0  0  0  0  0  0  0
   28.7047    8.7174    2.4867 O   0  0  0  0  0  0  0  0  0  0  0  0
   31.4303   10.4324    3.4130 C   0  0  1  0  0  0  0  0  0  0  0  0
   31.6679    9.3253    2.3442 C   0  0  2  0  0  0  0  0  0  0  0  0
   32.6467    8.4601    2.8273 O   0  0  0  0  0  0  0  0  0  0  0  0
   32.1826   10.1760    1.2582 C   0  0  1  0  0  0  0  0  0  0  0  0
   31.3681   11.5065    1.2554 C   0  0  2  0  0  0  0  0  0  0  0  0
   31.2414   11.6667    2.6471 O   0  0  0  0  0  0  0  0  0  0  0  0
   30.0932   11.5719    0.4133 C   0  0  0  0  0  0  0  0  0  0  0  0
   30.4983   11.4059   -0.9325 O   0  0  0  0  0  0  0  0  0  0  0  0
   34.3490   11.1723    0.6770 C   0  0  2  0  0  0  0  0  0  0  0  0
   33.6392   10.3883    1.5402 O   0  0  0  0  0  0  0  0  0  0  0  0
   34.3122   10.6429   -0.7264 C   0  0  1  0  0  0  0  0  0  0  0  0
   38.8707   10.9920    0.9175 N   0  0  0  0  0  0  0  0  0  0  0  0
   23.5165    8.2356   -0.2891 O   0  0  0  0  0  0  0  0  0  0  0  0
   35.1915   11.5655   -1.6568 C   0  0  2  0  0  0  0  0  0  0  0  0
   36.6787   11.7056   -1.1798 C   0  0  1  0  0  0  0  0  0  0  0  0
   36.6884   12.2252    0.1676 C   0  0  1  0  0  0  0  0  0  0  0  0
   35.8485   11.3551    1.0834 O   0  0  0  0  0  0  0  0  0  0  0  0
   38.1800   12.3429    0.7100 C   0  0  0  0  0  0  0  0  0  0  0  0
   34.8517    9.3415   -0.7657 N   0  0  0  0  0  0  0  0  0  0  0  0
   31.5813   12.8804    8.9522 O   0  0  0  0  0  0  0  0  0  0  0  0
   24.1637   10.3690   -0.7247 C   0  0  0  0  0  0  0  0  0  0  0  0
   37.1579   10.6626   -1.1794 O   0  0  0  0  0  0  0  0  0  0  0  0
   34.7387   12.6228   -1.6437 O   0  0  0  0  0  0  0  0  0  0  0  0
   25.0769    9.4284    1.2456 C   0  0  0  0  0  0  0  0  0  0  0  0
   25.2592   11.0507   -1.2056 C   0  0  0  0  0  0  0  0  0  0  0  0
   24.5791    9.1864   -0.2727 C   0  0  1  0  0  0  0  0  0  0  0  0
   30.5549   10.4919    9.5375 F   0  0  0  0  0  0  0  0  0  0  0  0
  1  2  1  6  0  0  0
  1 10  1  0  0  0  0
  1  3  1  0  0  0  0
  3  4  1  6  0  0  0
  3  6  1  0  0  0  0
  5 46  2  0  0  0  0
  6 42  1  1  0  0  0
  6  8  1  0  0  0  0
  7 47  1  0  0  0  0
  8  9  1  0  0  0  0
  8 49  1  1  0  0  0
  9 10  1  0  0  0  0
  9 11  1  1  0  0  0
 11 12  1  0  0  0  0
 13 14  1  6  0  0  0
 13 15  1  0  0  0  0
 13 21  1  0  0  0  0
 14 46  1  0  0  0  0
 15 16  1  0  0  0  0
 16 17  1  6  0  0  0
 16 18  1  0  0  0  0
 18  2  1  1  0  0  0
 18 19  1  0  0  0  0
 19 20  1  6  0  0  0
 19 21  1  0  0  0  0
 21 22  1  1  0  0  0
 23 20  1  6  0  0  0
 23 24  1  0  0  0  0
 23 28  1  0  0  0  0
 24 25  1  1  0  0  0
 24 26  1  0  0  0  0
 26 27  1  0  0  0  0
 26 32  1  1  0  0  0
 27 28  1  0  0  0  0
 27 29  1  6  0  0  0
 29 30  1  0  0  0  0
 31 32  1  1  0  0  0
 31 33  1  0  0  0  0
 31 39  1  0  0  0  0
 33 36  1  0  0  0  0
 33 41  1  1  0  0  0
 34 40  1  0  0  0  0
 35 48  1  0  0  0  0
 36 37  1  0  0  0  0
 36 45  1  1  0  0  0
 37 38  1  0  0  0  0
 37 44  1  1  0  0  0
 38 39  1  0  0  0  0
 38 40  1  1  0  0  0
 43 47  1  0  0  0  0
 46 48  1  0  0  0  0
 48 43  1  1  0  0  0
M  END
>  <CHROM.1>
-178.49613660,56.62735923,-62.76941015,-107.55944259,-76.08851870,-86.80725082
-178.99618452,-63.29580477,-58.68556224,-67.38019794,174.12976291,-155.51559122
-15.55956603,30.57420815,10.90138111,2.80999449,-2.75691394,-0.08703535,-1.64893466

>  <Name>
ligand

>  <RI>
0

>  <Rbt.Current_Directory>
/home/itssahil/PROJECTS/Mol_Feturizer/New_Systems/rnas/4PDQ

>  <Rbt.Executable>
rbdock ($Id: //depot/dev/client3/rdock/2013.1/src/exe/rbdock.cxx#4 $)

>  <Rbt.Library>
libRbt.so (2013.1, Build901 2013/11/27)

>  <Rbt.Parameter_File>
/export/apps/rDock/src/rDock_2013.1_src/data/scripts/dock_solv.prm

>  <Rbt.Receptor>
prm/pocket_docking_5.prm

>  <SCORE>
-19.0563

>  <SCORE.INTER>
-7.70895

>  <SCORE.INTER.CONST>
1

>  <SCORE.INTER.POLAR>
0

>  <SCORE.INTER.ROT>
13

>  <SCORE.INTER.SOLV>
24.3297

>  <SCORE.INTER.VDW>
-25.5159

>  <SCORE.INTER.norm>
-0.157325

>  <SCORE.INTRA>
-11.3474

>  <SCORE.INTRA.DIHEDRAL>
-25.8066

>  <SCORE.INTRA.DIHEDRAL.0>
34.5115

>  <SCORE.INTRA.POLAR>
0

>  <SCORE.INTRA.POLAR.0>
0

>  <SCORE.INTRA.REPUL>
0

>  <SCORE.INTRA.REPUL.0>
0

>  <SCORE.INTRA.SOLV>
-0.382297

>  <SCORE.INTRA.SOLV.lig_0>
-122.812

>  <SCORE.INTRA.VDW>
1.74711

>  <SCORE.INTRA.VDW.0>
-7.46208

>  <SCORE.INTRA.norm>
-0.231579

>  <SCORE.RESTR>
0

>  <SCORE.RESTR.CAVITY>
0

>  <SCORE.RESTR.norm>
0

>  <SCORE.SYSTEM>
0

>  <SCORE.SYSTEM.CONST>
0

>  <SCORE.SYSTEM.DIHEDRAL>
0

>  <SCORE.SYSTEM.SOLV>
0

>  <SCORE.SYSTEM.norm>
0

>  <SCORE.heavy>
49

>  <SCORE.norm>
-0.388904

>  <RMSD>
10.198

$$$$
ligand
 OpenBabel11021811513D
libRbt.so/2013.1/901 2013/11/27
 49 52  0  0  0  0  0  0  0  0999 V2000
   27.5204   14.4056    8.3274 C   0  0  2  0  0  0  0  0  0  0  0  0
   26.3026   13.7516    8.5303 O   0  0  0  0  0  0  0  0  0  0  0  0
   27.5236   15.0949    6.9124 C   0  0  2  0  0  0  0  0  0  0  0  0
   26.3716   16.0847    6.8375 N   0  0  0  0  0  0  0  0  0  0  0  0
   28.5828   10.2308   13.6467 O   0  0  0  0  0  0  0  0  0  0  0  0
   27.4267   14.0305    5.7946 C   0  0  2  0  0  0  0  0  0  0  0  0
   26.0183   10.9644   15.7782 N   0  0  0  0  0  0  0  0  0  0  0  0
   28.5891   13.0312    5.9030 C   0  0  2  0  0  0  0  0  0  0  0  0
   28.6198   12.3162    7.3198 C   0  0  2  0  0  0  0  0  0  0  0  0
   28.6614   13.4063    8.3924 O   0  0  0  0  0  0  0  0  0  0  0  0
   29.8314   11.3474    7.4423 C   0  0  0  0  0  0  0  0  0  0  0  0
   29.8960   10.6641    8.6844 N   0  0  0  0  0  0  0  0  0  0  0  0
   26.8802   10.4629   11.2968 C   0  0  2  0  0  0  0  0  0  0  0  0
   26.6071    9.5124   12.4144 N   0  0  0  0  0  0  0  0  0  0  0  0
   26.5452   11.9355   11.8406 C   0  0  0  0  0  0  0  0  0  0  0  0
   26.8306   13.0101   10.7261 C   0  0  2  0  0  0  0  0  0  0  0  0
   26.5082   14.3621   11.2056 N   0  0  0  0  0  0  0  0  0  0  0  0
   25.9739   12.7239    9.4766 C   0  0  2  0  0  0  0  0  0  0  0  0
   26.2772   11.2756    8.9167 C   0  0  2  0  0  0  0  0  0  0  0  0
   25.4199   11.1037    7.7273 O   0  0  0  0  0  0  0  0  0  0  0  0
   25.9149   10.1907   10.0539 C   0  0  1  0  0  0  0  0  0  0  0  0
   26.1809    8.9240    9.5398 O   0  0  0  0  0  0  0  0  0  0  0  0
   25.7498   10.5625    6.6043 C   0  0  1  0  0  0  0  0  0  0  0  0
   26.3764    9.1401    6.6985 C   0  0  2  0  0  0  0  0  0  0  0  0
   27.7586    9.2815    6.7951 O   0  0  0  0  0  0  0  0  0  0  0  0
   25.9730    8.6350    5.3755 C   0  0  1  0  0  0  0  0  0  0  0  0
   24.5307    9.1494    5.0779 C   0  0  2  0  0  0  0  0  0  0  0  0
   24.6565   10.4336    5.6379 O   0  0  0  0  0  0  0  0  0  0  0  0
   23.3490    8.2898    5.5291 C   0  0  0  0  0  0  0  0  0  0  0  0
   23.4240    8.2226    6.9407 O   0  0  0  0  0  0  0  0  0  0  0  0
   26.9122    8.7069    3.1092 C   0  0  2  0  0  0  0  0  0  0  0  0
   26.9857    9.1502    4.3983 O   0  0  0  0  0  0  0  0  0  0  0  0
   28.0481    9.2163    2.2717 C   0  0  1  0  0  0  0  0  0  0  0  0
   23.7794    8.5577   -1.0731 N   0  0  0  0  0  0  0  0  0  0  0  0
   27.7524    7.1778   14.4238 O   0  0  0  0  0  0  0  0  0  0  0  0
   27.8724    8.7092    0.7878 C   0  0  2  0  0  0  0  0  0  0  0  0
   26.5060    9.1223    0.1390 C   0  0  1  0  0  0  0  0  0  0  0  0
   25.4298    8.6131    0.9564 C   0  0  1  0  0  0  0  0  0  0  0  0
   25.5758    9.0867    2.3901 O   0  0  0  0  0  0  0  0  0  0  0  0
   24.0204    9.0472    0.3578 C   0  0  0  0  0  0  0  0  0  0  0  0
   28.0418   10.6256    2.2556 N   0  0  0  0  0  0  0  0  0  0  0  0
   27.4720   14.5518    4.7785 O   0  0  0  0  0  0  0  0  0  0  0  0
   27.5619    8.9345   15.8511 C   0  0  0  0  0  0  0  0  0  0  0  0
   26.4472   10.2685    0.1189 O   0  0  0  0  0  0  0  0  0  0  0  0
   27.9004    7.5593    0.7967 O   0  0  0  0  0  0  0  0  0  0  0  0
   27.5806    9.5078   13.5551 C   0  0  0  0  0  0  0  0  0  0  0  0
   26.5909    9.7876   16.3260 C   0  0  0  0  0  0  0  0  0  0  0  0
   27.1435    8.4401   14.6867 C   0  0  1  0  0  0  0  0  0  0  0  0
   29.8133   13.6992    5.7229 F   0  0  0  0  0  0  0  0  0  0  0  0
  1  2  1  6  0  0  0
  1 10  1  0  0  0  0
  1  3  1  0  0  0  0
  3  4  1  1  0  0  0
  3  6  1  0  0  0  0
  5 46  2  0  0  0  0
  6 42  1  6  0  0  0
  6  8  1  0  0  0  0
  7 47  1  0  0  0  0
  8  9  1  0  0  0  0
  8 49  1  1  0  0  0
  9 10  1  0  0  0  0
  9 11  1  6  0  0  0
 11 12  1  0  0  0  0
 13 14  1  1  0  0  0
 13 15  1  0  0  0  0
 13 21  1  0  0  0  0
 14 46  1  0  0  0  0
 15 16  1  0  0  0  0
 16 17  1  1  0  0  0
 16 18  1  0  0  0  0
 18  2  1  6  0  0  0
 18 19  1  0  0  0  0
 19 20  1  6  0  0  0
 19 21  1  0  0  0  0
 21 22  1  6  0  0  0
 23 20  1  1  0  0  0
 23 24  1  0  0  0  0
 23 28  1  0  0  0  0
 24 25  1  6  0  0  0
 24 26  1  0  0  0  0
 26 27  1  0  0  0  0
 26 32  1  6  0  0  0
 27 28  1  0  0  0  0
 27 29  1  1  0  0  0
 29 30  1  0  0  0  0
 31 32  1  1  0  0  0
 31 33  1  0  0  0  0
 31 39  1  0  0  0  0
 33 36  1  0  0  0  0
 33 41  1  6  0  0  0
 34 40  1  0  0  0  0
 35 48  1  0  0  0  0
 36 37  1  0  0  0  0
 36 45  1  1  0  0  0
 37 38  1  0  0  0  0
 37 44  1  1  0  0  0
 38 39  1  0  0  0  0
 38 40  1  6  0  0  0
 43 47  1  0  0  0  0
 46 48  1  0  0  0  0
 48 43  1  1  0  0  0
M  END
>  <CHROM.1>
161.81185423,32.93029743,-179.07409638,-72.82179636,138.34299908,52.58976266
173.46318390,62.75139152,-175.42360160,59.06066007,-59.28614219,-154.63114067
-89.77126366,26.78372040,10.68173130,7.26169069,-1.33539720,-1.23441372,-1.43226910

>  <Name>
ligand

>  <RI>
0

>  <Rbt.Current_Directory>
/home/itssahil/PROJECTS/Mol_Feturizer/New_Systems/rnas/4PDQ

>  <Rbt.Executable>
rbdock ($Id: //depot/dev/client3/rdock/2013.1/src/exe/rbdock.cxx#4 $)

>  <Rbt.Library>
libRbt.so (2013.1, Build901 2013/11/27)

>  <Rbt.Parameter_File>
/export/apps/rDock/src/rDock_2013.1_src/data/scripts/dock_solv.prm

>  <Rbt.Receptor>
prm/pocket_docking_7.prm

>  <SCORE>
-10.0848

>  <SCORE.INTER>
-2.78399

>  <SCORE.INTER.CONST>
1

>  <SCORE.INTER.POLAR>
0

>  <SCORE.INTER.ROT>
13

>  <SCORE.INTER.SOLV>
17.775

>  <SCORE.INTER.VDW>
-20.0477

>  <SCORE.INTER.norm>
-0.0568161

>  <SCORE.INTRA>
-7.30077

>  <SCORE.INTRA.DIHEDRAL>
-19.868

>  <SCORE.INTRA.DIHEDRAL.0>
34.5115

>  <SCORE.INTRA.POLAR>
0

>  <SCORE.INTRA.POLAR.0>
0

>  <SCORE.INTRA.REPUL>
0

>  <SCORE.INTRA.REPUL.0>
0

>  <SCORE.INTRA.SOLV>
3.33549

>  <SCORE.INTRA.SOLV.lig_0>
-122.812

>  <SCORE.INTRA.VDW>
0.96547

>  <SCORE.INTRA.VDW.0>
-7.46208

>  <SCORE.INTRA.norm>
-0.148995

>  <SCORE.RESTR>
0

>  <SCORE.RESTR.CAVITY>
0

>  <SCORE.RESTR.norm>
0

>  <SCORE.SYSTEM>
0

>  <SCORE.SYSTEM.CONST>
0

>  <SCORE.SYSTEM.DIHEDRAL>
0

>  <SCORE.SYSTEM.SOLV>
0

>  <SCORE.SYSTEM.norm>
0

>  <SCORE.heavy>
49

>  <SCORE.norm>
-0.205811

>  <RMSD>
10.203

$$$$
ligand
 OpenBabel11021811513D
libRbt.so/2013.1/901 2013/11/27
 49 52  0  0  0  0  0  0  0  0999 V2000
   25.0257   19.9921    8.9743 C   0  0  2  0  0  0  0  0  0  0  0  0
   24.6825   19.0660    7.9861 O   0  0  0  0  0  0  0  0  0  0  0  0
   24.3352   19.5991   10.3330 C   0  0  2  0  0  0  0  0  0  0  0  0
   24.7853   18.2034   10.7355 N   0  0  0  0  0  0  0  0  0  0  0  0
   28.0175   14.4688    7.1159 O   0  0  0  0  0  0  0  0  0  0  0  0
   22.7966   19.6789   10.1982 C   0  0  2  0  0  0  0  0  0  0  0  0
   26.3325   12.1386    2.8424 N   0  0  0  0  0  0  0  0  0  0  0  0
   22.3679   21.0917    9.7719 C   0  0  2  0  0  0  0  0  0  0  0  0
   23.0469   21.5247    8.4040 C   0  0  2  0  0  0  0  0  0  0  0  0
   24.5610   21.3789    8.5673 O   0  0  0  0  0  0  0  0  0  0  0  0
   22.6522   22.9767    8.0072 C   0  0  0  0  0  0  0  0  0  0  0  0
   23.3544   23.4738    6.8786 N   0  0  0  0  0  0  0  0  0  0  0  0
   26.2604   15.9929    5.3653 C   0  0  2  0  0  0  0  0  0  0  0  0
   27.1186   14.8697    4.8867 N   0  0  0  0  0  0  0  0  0  0  0  0
   27.2378   17.0831    6.0230 C   0  0  0  0  0  0  0  0  0  0  0  0
   26.4123   18.3217    6.5357 C   0  0  2  0  0  0  0  0  0  0  0  0
   27.2947   19.3191    7.1589 N   0  0  0  0  0  0  0  0  0  0  0  0
   25.3735   17.8743    7.5834 C   0  0  2  0  0  0  0  0  0  0  0  0
   24.3951   16.7943    6.9675 C   0  0  2  0  0  0  0  0  0  0  0  0
   23.4428   16.4400    8.0384 O   0  0  0  0  0  0  0  0  0  0  0  0
   25.2574   15.5102    6.5105 C   0  0  1  0  0  0  0  0  0  0  0  0
   24.3787   14.5694    5.9792 O   0  0  0  0  0  0  0  0  0  0  0  0
   23.7042   15.8094    9.1324 C   0  0  1  0  0  0  0  0  0  0  0  0
   22.5145   15.6584   10.1256 C   0  0  2  0  0  0  0  0  0  0  0  0
   22.5357   16.7462   10.9951 O   0  0  0  0  0  0  0  0  0  0  0  0
   22.9439   14.4192   10.7949 C   0  0  1  0  0  0  0  0  0  0  0  0
   23.5637   13.4751    9.7188 C   0  0  2  0  0  0  0  0  0  0  0  0
   24.2240   14.4519    8.9518 O   0  0  0  0  0  0  0  0  0  0  0  0
   22.6351   12.5048    8.9873 C   0  0  0  0  0  0  0  0  0  0  0  0
   21.6530   13.3002    8.3504 O   0  0  0  0  0  0  0  0  0  0  0  0
   25.1320   15.3273   11.4361 C   0  0  2  0  0  0  0  0  0  0  0  0
   23.9307   14.8259   11.8471 O   0  0  0  0  0  0  0  0  0  0  0  0
   26.1871   14.2642   11.3491 C   0  0  1  0  0  0  0  0  0  0  0  0
   27.5862   17.7881   14.3889 N   0  0  0  0  0  0  0  0  0  0  0  0
   29.7064   12.4187    6.2149 O   0  0  0  0  0  0  0  0  0  0  0  0
   27.5566   14.9201   10.9196 C   0  0  2  0  0  0  0  0  0  0  0  0
   28.0335   16.0660   11.8779 C   0  0  1  0  0  0  0  0  0  0  0  0
   27.0073   17.0803   11.9375 C   0  0  1  0  0  0  0  0  0  0  0  0
   25.6786   16.4745   12.3484 O   0  0  0  0  0  0  0  0  0  0  0  0
   27.4310   18.2453   12.9357 C   0  0  0  0  0  0  0  0  0  0  0  0
   26.3683   13.6596   12.6093 N   0  0  0  0  0  0  0  0  0  0  0  0
   22.3205   19.4293   11.2068 O   0  0  0  0  0  0  0  0  0  0  0  0
   27.9475   12.0857    4.8166 C   0  0  0  0  0  0  0  0  0  0  0  0
   28.1795   15.6228   12.9266 O   0  0  0  0  0  0  0  0  0  0  0  0
   27.4165   15.3941    9.8809 O   0  0  0  0  0  0  0  0  0  0  0  0
   27.9731   14.1840    5.9107 C   0  0  0  0  0  0  0  0  0  0  0  0
   27.4941   12.4854    3.5794 C   0  0  0  0  0  0  0  0  0  0  0  0
   28.8304   12.9874    5.2439 C   0  0  1  0  0  0  0  0  0  0  0  0
   22.7381   22.0227   10.7585 F   0  0  0  0  0  0  0  0  0  0  0  0
  1  2  1  6  0  0  0
  1 10  1  0  0  0  0
  1  3  1  0  0  0  0
  3  4  1  6  0  0  0
  3  6  1  0  0  0  0
  5 46  2  0  0  0  0
  6 42  1  1  0  0  0
  6  8  1  0  0  0  0
  7 47  1  0  0  0  0
  8  9  1  0  0  0  0
  8 49  1  1  0  0  0
  9 10  1  0  0  0  0
  9 11  1  1  0  0  0
 11 12  1  0  0  0  0
 13 14  1  1  0  0  0
 13 15  1  0  0  0  0
 13 21  1  0  0  0  0
 14 46  1  0  0  0  0
 15 16  1  0  0  0  0
 16 17  1  1  0  0  0
 16 18  1  0  0  0  0
 18  2  1  6  0  0  0
 18 19  1  0  0  0  0
 19 20  1  1  0  0  0
 19 21  1  0  0  0  0
 21 22  1  6  0  0  0
 23 20  1  6  0  0  0
 23 24  1  0  0  0  0
 23 28  1  0  0  0  0
 24 25  1  1  0  0  0
 24 26  1  0  0  0  0
 26 27  1  0  0  0  0
 26 32  1  1  0  0  0
 27 28  1  0  0  0  0
 27 29  1  6  0  0  0
 29 30  1  0  0  0  0
 31 32  1  1  0  0  0
 31 33  1  0  0  0  0
 31 39  1  0  0  0  0
 33 36  1  0  0  0  0
 33 41  1  1  0  0  0
 34 40  1  0  0  0  0
 35 48  1  0  0  0  0
 36 37  1  0  0  0  0
 36 45  1  6  0  0  0
 37 38  1  0  0  0  0
 37 44  1  1  0  0  0
 38 39  1  0  0  0  0
 38 40  1  1  0  0  0
 43 47  1  0  0  0  0
 46 48  1  0  0  0  0
 48 43  1  1  0  0  0
M  END
>  <CHROM.1>
-92.62394089,-86.15318775,172.85793994,58.25161669,-67.71273898,176.05797359
-67.70606213,58.83669051,-93.79141437,-63.36129592,-160.34873584,-157.26891427
-5.23089728,25.28611734,16.58921669,8.89083654,2.81089657,-1.15231270,1.73145244

>  <Name>
ligand

>  <RI>
0

>  <Rbt.Current_Directory>
/home/itssahil/PROJECTS/Mol_Feturizer/New_Systems/rnas/4PDQ

>  <Rbt.Executable>
rbdock ($Id: //depot/dev/client3/rdock/2013.1/src/exe/rbdock.cxx#4 $)

>  <Rbt.Library>
libRbt.so (2013.1, Build901 2013/11/27)

>  <Rbt.Parameter_File>
/export/apps/rDock/src/rDock_2013.1_src/data/scripts/dock_solv.prm

>  <Rbt.Receptor>
prm/blind_docking_40.prm

>  <SCORE>
3.27315

>  <SCORE.INTER>
-5.02664

>  <SCORE.INTER.CONST>
1

>  <SCORE.INTER.POLAR>
0

>  <SCORE.INTER.ROT>
13

>  <SCORE.INTER.SOLV>
33.5347

>  <SCORE.INTER.VDW>
-26.796

>  <SCORE.INTER.norm>
-0.102585

>  <SCORE.INTRA>
1.49904

>  <SCORE.INTRA.DIHEDRAL>
-18.5007

>  <SCORE.INTRA.DIHEDRAL.0>
34.5115

>  <SCORE.INTRA.POLAR>
0

>  <SCORE.INTRA.POLAR.0>
0

>  <SCORE.INTRA.REPUL>
0.443845

>  <SCORE.INTRA.REPUL.0>
0

>  <SCORE.INTRA.SOLV>
9.84915

>  <SCORE.INTRA.SOLV.lig_0>
-122.812

>  <SCORE.INTRA.VDW>
3.60557

>  <SCORE.INTRA.VDW.0>
-7.46208

>  <SCORE.INTRA.norm>
0.0305926

>  <SCORE.RESTR>
6.80076

>  <SCORE.RESTR.CAVITY>
6.80076

>  <SCORE.RESTR.norm>
0.138791

>  <SCORE.SYSTEM>
0

>  <SCORE.SYSTEM.CONST>
0

>  <SCORE.SYSTEM.DIHEDRAL>
0

>  <SCORE.SYSTEM.SOLV>
0

>  <SCORE.SYSTEM.norm>
0

>  <SCORE.heavy>
49

>  <SCORE.norm>
0.066799

>  <RMSD>
10.216

$$$$
ligand
 OpenBabel11021811513D
libRbt.so/2013.1/901 2013/11/27
 49 52  0  0  0  0  0  0  0  0999 V2000
   27.2359   13.3558    7.9947 C   0  0  2  0  0  0  0  0  0  0  0  0
   25.9234   12.8791    8.0415 O   0  0  0  0  0  0  0  0  0  0  0  0
   27.3778   14.4069    6.8318 C   0  0  2  0  0  0  0  0  0  0  0  0
   26.4065   15.5517    7.0734 N   0  0  0  0  0  0  0  0  0  0  0  0
   26.9463    6.7732   11.0883 O   0  0  0  0  0  0  0  0  0  0  0  0
   27.1262   13.7329    5.4628 C   0  0  2  0  0  0  0  0  0  0  0  0
   24.5455    3.4232   11.9799 N   0  0  0  0  0  0  0  0  0  0  0  0
   28.1056   12.5679    5.2503 C   0  0  2  0  0  0  0  0  0  0  0  0
   27.9928   11.4863    6.4067 C   0  0  2  0  0  0  0  0  0  0  0  0
   28.1949   12.2065    7.7411 O   0  0  0  0  0  0  0  0  0  0  0  0
   29.0256   10.3382    6.2148 C   0  0  0  0  0  0  0  0  0  0  0  0
   28.9140    9.6690    4.9683 N   0  0  0  0  0  0  0  0  0  0  0  0
   25.6392    9.3008   10.4741 C   0  0  2  0  0  0  0  0  0  0  0  0
   25.1453    8.3569   11.5192 N   0  0  0  0  0  0  0  0  0  0  0  0
   25.7500   10.7468   11.1621 C   0  0  0  0  0  0  0  0  0  0  0  0
   26.2908   11.8055   10.1301 C   0  0  2  0  0  0  0  0  0  0  0  0
   26.3777   13.1391   10.7430 N   0  0  0  0  0  0  0  0  0  0  0  0
   25.3489   11.8940    8.9128 C   0  0  2  0  0  0  0  0  0  0  0  0
   25.2141   10.4816    8.2128 C   0  0  2  0  0  0  0  0  0  0  0  0
   24.3057   10.6735    7.0650 O   0  0  0  0  0  0  0  0  0  0  0  0
   24.5973    9.4321    9.2709 C   0  0  1  0  0  0  0  0  0  0  0  0
   24.4793    8.1991    8.6343 O   0  0  0  0  0  0  0  0  0  0  0  0
   24.2496    9.9608    5.9918 C   0  0  1  0  0  0  0  0  0  0  0  0
   25.5779    9.8458    5.1874 C   0  0  2  0  0  0  0  0  0  0  0  0
   25.6067   10.8753    4.2498 O   0  0  0  0  0  0  0  0  0  0  0  0
   25.3371    8.5393    4.5526 C   0  0  1  0  0  0  0  0  0  0  0  0
   24.6357    7.6144    5.5947 C   0  0  2  0  0  0  0  0  0  0  0  0
   23.8050    8.5796    6.1921 O   0  0  0  0  0  0  0  0  0  0  0  0
   25.5142    6.7652    6.5145 C   0  0  0  0  0  0  0  0  0  0  0  0
   26.3085    5.9561    5.6676 O   0  0  0  0  0  0  0  0  0  0  0  0
   25.1174    9.1079    2.1752 C   0  0  2  0  0  0  0  0  0  0  0  0
   24.4867    8.8041    3.3471 O   0  0  0  0  0  0  0  0  0  0  0  0
   24.1719    9.1124    1.0103 C   0  0  1  0  0  0  0  0  0  0  0  0
   27.7816    5.9352    0.3173 N   0  0  0  0  0  0  0  0  0  0  0  0
   25.2390    6.9206   14.1052 O   0  0  0  0  0  0  0  0  0  0  0  0
   24.9740    9.4193   -0.3135 C   0  0  2  0  0  0  0  0  0  0  0  0
   26.1480    8.4158   -0.5850 C   0  0  1  0  0  0  0  0  0  0  0  0
   27.0485    8.4365    0.5439 C   0  0  1  0  0  0  0  0  0  0  0  0
   26.3007    8.1443    1.8310 O   0  0  0  0  0  0  0  0  0  0  0  0
   28.2353    7.3977    0.3306 C   0  0  0  0  0  0  0  0  0  0  0  0
   23.5695    7.8457    0.8726 N   0  0  0  0  0  0  0  0  0  0  0  0
   27.2749   14.5056    4.6338 O   0  0  0  0  0  0  0  0  0  0  0  0
   24.0459    5.8746   12.4797 C   0  0  0  0  0  0  0  0  0  0  0  0
   25.7058    7.3617   -0.6885 O   0  0  0  0  0  0  0  0  0  0  0  0
   25.4473   10.4627   -0.2117 O   0  0  0  0  0  0  0  0  0  0  0  0
   25.9261    7.0918   11.7153 C   0  0  0  0  0  0  0  0  0  0  0  0
   24.1268    4.7479   11.6922 C   0  0  0  0  0  0  0  0  0  0  0  0
   25.2769    6.1845   12.8845 C   0  0  1  0  0  0  0  0  0  0  0  0
   29.4263   13.0502    5.2291 F   0  0  0  0  0  0  0  0  0  0  0  0
  1  2  1  6  0  0  0
  1 10  1  0  0  0  0
  1  3  1  0  0  0  0
  3  4  1  1  0  0  0
  3  6  1  0  0  0  0
  5 46  2  0  0  0  0
  6 42  1  6  0  0  0
  6  8  1  0  0  0  0
  7 47  1  0  0  0  0
  8  9  1  0  0  0  0
  8 49  1  1  0  0  0
  9 10  1  0  0  0  0
  9 11  1  6  0  0  0
 11 12  1  0  0  0  0
 13 14  1  1  0  0  0
 13 15  1  0  0  0  0
 13 21  1  0  0  0  0
 14 46  1  0  0  0  0
 15 16  1  0  0  0  0
 16 17  1  1  0  0  0
 16 18  1  0  0  0  0
 18  2  1  6  0  0  0
 18 19  1  0  0  0  0
 19 20  1  6  0  0  0
 19 21  1  0  0  0  0
 21 22  1  6  0  0  0
 23 20  1  1  0  0  0
 23 24  1  0  0  0  0
 23 28  1  0  0  0  0
 24 25  1  6  0  0  0
 24 26  1  0  0  0  0
 26 27  1  0  0  0  0
 26 32  1  6  0  0  0
 27 28  1  0  0  0  0
 27 29  1  1  0  0  0
 29 30  1  0  0  0  0
 31 32  1  1  0  0  0
 31 33  1  0  0  0  0
 31 39  1  0  0  0  0
 33 36  1  0  0  0  0
 33 41  1  6  0  0  0
 34 40  1  0  0  0  0
 35 48  1  0  0  0  0
 36 37  1  0  0  0  0
 36 45  1  1  0  0  0
 37 38  1  0  0  0  0
 37 44  1  1  0  0  0
 38 39  1  0  0  0  0
 38 40  1  6  0  0  0
 43 47  1  0  0  0  0
 46 48  1  0  0  0  0
 48 43  1  6  0  0  0
M  END
>  <CHROM.1>
178.41467417,20.12879257,-57.23612769,-128.91778334,155.33338704,-56.79967427
87.62283159,-58.21848920,170.04155478,-66.12593783,62.90481927,-154.68587175
120.67172140,25.98243978,9.54635448,6.30884211,-1.84518262,-1.28098412,-1.73054551

>  <Name>
ligand

>  <RI>
0

>  <Rbt.Current_Directory>
/home/itssahil/PROJECTS/Mol_Feturizer/New_Systems/rnas/4PDQ

>  <Rbt.Executable>
rbdock ($Id: //depot/dev/client3/rdock/2013.1/src/exe/rbdock.cxx#4 $)

>  <Rbt.Library>
libRbt.so (2013.1, Build901 2013/11/27)

>  <Rbt.Parameter_File>
/export/apps/rDock/src/rDock_2013.1_src/data/scripts/dock_solv.prm

>  <Rbt.Receptor>
prm/pocket_docking_6.prm

>  <SCORE>
-8.87356

>  <SCORE.INTER>
-2.81373

>  <SCORE.INTER.CONST>
1

>  <SCORE.INTER.POLAR>
0

>  <SCORE.INTER.ROT>
13

>  <SCORE.INTER.SOLV>
17.8557

>  <SCORE.INTER.VDW>
-20.0944

>  <SCORE.INTER.norm>
-0.0574231

>  <SCORE.INTRA>
-6.05983

>  <SCORE.INTRA.DIHEDRAL>
-18.6778

>  <SCORE.INTRA.DIHEDRAL.0>
34.5115

>  <SCORE.INTRA.POLAR>
0

>  <SCORE.INTRA.POLAR.0>
0

>  <SCORE.INTRA.REPUL>
0

>  <SCORE.INTRA.REPUL.0>
0

>  <SCORE.INTRA.SOLV>
2.56491

>  <SCORE.INTRA.SOLV.lig_0>
-122.812

>  <SCORE.INTRA.VDW>
1.99662

>  <SCORE.INTRA.VDW.0>
-7.46208

>  <SCORE.INTRA.norm>
-0.12367

>  <SCORE.RESTR>
0

>  <SCORE.RESTR.CAVITY>
0

>  <SCORE.RESTR.norm>
0

>  <SCORE.SYSTEM>
0

>  <SCORE.SYSTEM.CONST>
0

>  <SCORE.SYSTEM.DIHEDRAL>
0

>  <SCORE.SYSTEM.SOLV>
0

>  <SCORE.SYSTEM.norm>
0

>  <SCORE.heavy>
49

>  <SCORE.norm>
-0.181093

>  <RMSD>
10.229

$$$$
ligand
 OpenBabel11021811513D
libRbt.so/2013.1/901 2013/11/27
 49 52  0  0  0  0  0  0  0  0999 V2000
   25.4013   13.5969    6.5522 C   0  0  2  0  0  0  0  0  0  0  0  0
   26.4064   13.1426    7.4096 O   0  0  0  0  0  0  0  0  0  0  0  0
   26.0106   13.8988    5.1328 C   0  0  2  0  0  0  0  0  0  0  0  0
   26.6436   12.6306    4.5821 N   0  0  0  0  0  0  0  0  0  0  0  0
   26.6331   10.6303   12.5578 O   0  0  0  0  0  0  0  0  0  0  0  0
   27.0393   15.0502    5.2219 C   0  0  2  0  0  0  0  0  0  0  0  0
   28.1991    5.5416   12.0334 N   0  0  0  0  0  0  0  0  0  0  0  0
   26.3818   16.3136    5.7991 C   0  0  2  0  0  0  0  0  0  0  0  0
   25.7531   16.0472    7.2321 C   0  0  2  0  0  0  0  0  0  0  0  0
   24.7852   14.8692    7.1058 O   0  0  0  0  0  0  0  0  0  0  0  0
   25.0410   17.3152    7.7858 C   0  0  0  0  0  0  0  0  0  0  0  0
   25.7092   18.5287    7.4779 N   0  0  0  0  0  0  0  0  0  0  0  0
   26.3127    9.5701    9.8656 C   0  0  2  0  0  0  0  0  0  0  0  0
   26.3848    8.7077   11.0813 N   0  0  0  0  0  0  0  0  0  0  0  0
   27.5738   10.5618    9.9180 C   0  0  0  0  0  0  0  0  0  0  0  0
   27.5894   11.4971    8.6518 C   0  0  2  0  0  0  0  0  0  0  0  0
   28.7294   12.4245    8.6982 N   0  0  0  0  0  0  0  0  0  0  0  0
   26.2928   12.3287    8.5862 C   0  0  2  0  0  0  0  0  0  0  0  0
   25.0279   11.3797    8.5376 C   0  0  2  0  0  0  0  0  0  0  0  0
   23.8486   12.2651    8.4692 O   0  0  0  0  0  0  0  0  0  0  0  0
   24.9999   10.4795    9.8756 C   0  0  1  0  0  0  0  0  0  0  0  0
   23.8767    9.6581    9.8176 O   0  0  0  0  0  0  0  0  0  0  0  0
   23.5703   13.2495    9.2543 C   0  0  1  0  0  0  0  0  0  0  0  0
   23.0496   12.8588   10.6688 C   0  0  2  0  0  0  0  0  0  0  0  0
   21.6598   12.7853   10.6135 O   0  0  0  0  0  0  0  0  0  0  0  0
   23.5018   14.0506   11.4057 C   0  0  1  0  0  0  0  0  0  0  0  0
   24.9050   14.4570   10.8585 C   0  0  2  0  0  0  0  0  0  0  0  0
   24.6793   14.1746    9.4991 O   0  0  0  0  0  0  0  0  0  0  0  0
   26.1425   13.8445   11.5158 C   0  0  0  0  0  0  0  0  0  0  0  0
   26.1072   14.2411   12.8738 O   0  0  0  0  0  0  0  0  0  0  0  0
   22.7809   16.3944   11.5065 C   0  0  2  0  0  0  0  0  0  0  0  0
   22.4632   15.1074   11.1807 O   0  0  0  0  0  0  0  0  0  0  0  0
   22.0435   17.3893   10.6594 C   0  0  1  0  0  0  0  0  0  0  0  0
   27.1032   17.4695   12.6376 N   0  0  0  0  0  0  0  0  0  0  0  0
   25.5266    8.5872   14.5170 O   0  0  0  0  0  0  0  0  0  0  0  0
   22.4955   18.8489   11.0535 C   0  0  2  0  0  0  0  0  0  0  0  0
   24.0406   19.0848   10.9279 C   0  0  1  0  0  0  0  0  0  0  0  0
   24.7273   18.1234   11.7583 C   0  0  1  0  0  0  0  0  0  0  0  0
   24.3094   16.7100   11.3992 O   0  0  0  0  0  0  0  0  0  0  0  0
   26.3039   18.2978   11.6276 C   0  0  0  0  0  0  0  0  0  0  0  0
   22.3528   17.1883    9.2991 N   0  0  0  0  0  0  0  0  0  0  0  0
   27.4363   15.2774    4.1745 O   0  0  0  0  0  0  0  0  0  0  0  0
   26.4917    7.1332   13.0628 C   0  0  0  0  0  0  0  0  0  0  0  0
   24.3444   18.9154    9.8341 O   0  0  0  0  0  0  0  0  0  0  0  0
   22.2228   19.0225   12.1574 O   0  0  0  0  0  0  0  0  0  0  0  0
   26.5554    9.4038   12.3986 C   0  0  0  0  0  0  0  0  0  0  0  0
   27.7464    6.7280   12.6661 C   0  0  0  0  0  0  0  0  0  0  0  0
   26.6031    8.3408   13.6148 C   0  0  1  0  0  0  0  0  0  0  0  0
   25.3545   16.7519    4.9448 F   0  0  0  0  0  0  0  0  0  0  0  0
  1  2  1  1  0  0  0
  1 10  1  0  0  0  0
  1  3  1  0  0  0  0
  3  4  1  1  0  0  0
  3  6  1  0  0  0  0
  5 46  2  0  0  0  0
  6 42  1  6  0  0  0
  6  8  1  0  0  0  0
  7 47  1  0  0  0  0
  8  9  1  0  0  0  0
  8 49  1  6  0  0  0
  9 10  1  0  0  0  0
  9 11  1  6  0  0  0
 11 12  1  0  0  0  0
 13 14  1  1  0  0  0
 13 15  1  0  0  0  0
 13 21  1  0  0  0  0
 14 46  1  0  0  0  0
 15 16  1  0  0  0  0
 16 17  1  1  0  0  0
 16 18  1  0  0  0  0
 18  2  1  6  0  0  0
 18 19  1  0  0  0  0
 19 20  1  1  0  0  0
 19 21  1  0  0  0  0
 21 22  1  6  0  0  0
 23 20  1  1  0  0  0
 23 24  1  0  0  0  0
 23 28  1  0  0  0  0
 24 25  1  6  0  0  0
 24 26  1  0  0  0  0
 26 27  1  0  0  0  0
 26 32  1  6  0  0  0
 27 28  1  0  0  0  0
 27 29  1  1  0  0  0
 29 30  1  0  0  0  0
 31 32  1  6  0  0  0
 31 33  1  0  0  0  0
 31 39  1  0  0  0  0
 33 36  1  0  0  0  0
 33 41  1  6  0  0  0
 34 40  1  0  0  0  0
 35 48  1  0  0  0  0
 36 37  1  0  0  0  0
 36 45  1  1  0  0  0
 37 38  1  0  0  0  0
 37 44  1  6  0  0  0
 38 39  1  0  0  0  0
 38 40  1  6  0  0  0
 43 47  1  0  0  0  0
 46 48  1  0  0  0  0
 48 43  1  6  0  0  0
M  END
>  <CHROM.1>
-155.73452050,148.10132344,-37.69277035,50.93715377,-51.90732149,-74.97456250
-165.76997010,-60.35599669,151.10357108,170.88053739,179.92181583,-155.84596175
59.91043694,25.26840111,13.72286688,9.74905481,-2.12829458,-1.13772059,2.32443227

>  <Name>
ligand

>  <RI>
0

>  <Rbt.Current_Directory>
/home/itssahil/PROJECTS/Mol_Feturizer/New_Systems/rnas/4PDQ

>  <Rbt.Executable>
rbdock ($Id: //depot/dev/client3/rdock/2013.1/src/exe/rbdock.cxx#4 $)

>  <Rbt.Library>
libRbt.so (2013.1, Build901 2013/11/27)

>  <Rbt.Parameter_File>
/export/apps/rDock/src/rDock_2013.1_src/data/scripts/dock_solv.prm

>  <Rbt.Receptor>
prm/blind_docking_100.prm

>  <SCORE>
10.1416

>  <SCORE.INTER>
2.25111

>  <SCORE.INTER.CONST>
1

>  <SCORE.INTER.POLAR>
0

>  <SCORE.INTER.ROT>
13

>  <SCORE.INTER.SOLV>
27.5543

>  <SCORE.INTER.VDW>
-19.9507

>  <SCORE.INTER.norm>
0.045941

>  <SCORE.INTRA>
5.19899

>  <SCORE.INTRA.DIHEDRAL>
-16.023

>  <SCORE.INTRA.DIHEDRAL.0>
34.5115

>  <SCORE.INTRA.POLAR>
0

>  <SCORE.INTRA.POLAR.0>
0

>  <SCORE.INTRA.REPUL>
0.199381

>  <SCORE.INTRA.REPUL.0>
0

>  <SCORE.INTRA.SOLV>
5.42428

>  <SCORE.INTRA.SOLV.lig_0>
-122.812

>  <SCORE.INTRA.VDW>
9.50143

>  <SCORE.INTRA.VDW.0>
-7.46208

>  <SCORE.INTRA.norm>
0.106102

>  <SCORE.RESTR>
2.69152

>  <SCORE.RESTR.CAVITY>
2.69152

>  <SCORE.RESTR.norm>
0.054929

>  <SCORE.SYSTEM>
0

>  <SCORE.SYSTEM.CONST>
0

>  <SCORE.SYSTEM.DIHEDRAL>
0

>  <SCORE.SYSTEM.SOLV>
0

>  <SCORE.SYSTEM.norm>
0

>  <SCORE.heavy>
49

>  <SCORE.norm>
0.206972

>  <RMSD>
10.243

$$$$
ligand
 OpenBabel11021811513D
libRbt.so/2013.1/901 2013/11/27
 49 52  0  0  0  0  0  0  0  0999 V2000
   26.8008    6.2174   10.1512 C   0  0  2  0  0  0  0  0  0  0  0  0
   27.1932    7.0308    9.0852 O   0  0  0  0  0  0  0  0  0  0  0  0
   27.9528    6.1528   11.2218 C   0  0  2  0  0  0  0  0  0  0  0  0
   28.2565    7.5597   11.7125 N   0  0  0  0  0  0  0  0  0  0  0  0
   26.9889   12.8579    5.4719 O   0  0  0  0  0  0  0  0  0  0  0  0
   29.2096    5.4811   10.6209 C   0  0  2  0  0  0  0  0  0  0  0  0
   27.2119   17.9632    6.3861 N   0  0  0  0  0  0  0  0  0  0  0  0
   28.8734    4.0698   10.1145 C   0  0  2  0  0  0  0  0  0  0  0  0
   27.7122    4.0943    9.0325 C   0  0  2  0  0  0  0  0  0  0  0  0
   26.5121    4.8132    9.6515 O   0  0  0  0  0  0  0  0  0  0  0  0
   27.3391    2.6575    8.5654 C   0  0  0  0  0  0  0  0  0  0  0  0
   26.3567    2.6243    7.5418 N   0  0  0  0  0  0  0  0  0  0  0  0
   26.8245   11.1666    7.8356 C   0  0  2  0  0  0  0  0  0  0  0  0
   26.8868   12.6563    7.8982 N   0  0  0  0  0  0  0  0  0  0  0  0
   26.1544   10.6669    9.2059 C   0  0  0  0  0  0  0  0  0  0  0  0
   26.0267    9.0978    9.2140 C   0  0  2  0  0  0  0  0  0  0  0  0
   25.4324    8.6260   10.4734 N   0  0  0  0  0  0  0  0  0  0  0  0
   27.4168    8.4482    9.0629 C   0  0  2  0  0  0  0  0  0  0  0  0
   28.1078    8.9241    7.7217 C   0  0  2  0  0  0  0  0  0  0  0  0
   29.4180    8.2460    7.6679 O   0  0  0  0  0  0  0  0  0  0  0  0
   28.2860   10.5265    7.7672 C   0  0  1  0  0  0  0  0  0  0  0  0
   28.9022   10.9242    6.5832 O   0  0  0  0  0  0  0  0  0  0  0  0
   30.3145    8.3610    6.7481 C   0  0  1  0  0  0  0  0  0  0  0  0
   31.5871    7.4829    6.9319 C   0  0  2  0  0  0  0  0  0  0  0  0
   32.5257    8.2248    7.6449 O   0  0  0  0  0  0  0  0  0  0  0  0
   31.9651    7.3457    5.5155 C   0  0  1  0  0  0  0  0  0  0  0  0
   30.6600    7.1734    4.6786 C   0  0  2  0  0  0  0  0  0  0  0  0
   29.8451    8.0717    5.3910 O   0  0  0  0  0  0  0  0  0  0  0  0
   30.1281    5.7575    4.4521 C   0  0  0  0  0  0  0  0  0  0  0  0
   31.1241    5.0731    3.7157 O   0  0  0  0  0  0  0  0  0  0  0  0
   33.2681    8.6649    3.9076 C   0  0  2  0  0  0  0  0  0  0  0  0
   32.7241    8.5874    5.1572 O   0  0  0  0  0  0  0  0  0  0  0  0
   33.8308   10.0259    3.6206 C   0  0  1  0  0  0  0  0  0  0  0  0
   31.0543    6.5958    0.5625 N   0  0  0  0  0  0  0  0  0  0  0  0
   28.2223   15.3430    7.5029 O   0  0  0  0  0  0  0  0  0  0  0  0
   34.3947   10.0588    2.1472 C   0  0  2  0  0  0  0  0  0  0  0  0
   33.3315    9.6821    1.0578 C   0  0  1  0  0  0  0  0  0  0  0  0
   32.8124    8.3664    1.3494 C   0  0  1  0  0  0  0  0  0  0  0  0
   32.2638    8.3080    2.7625 O   0  0  0  0  0  0  0  0  0  0  0  0
   31.6952    7.9598    0.2914 C   0  0  0  0  0  0  0  0  0  0  0  0
   32.8164   10.9989    3.7223 N   0  0  0  0  0  0  0  0  0  0  0  0
   30.0158    5.4094   11.4279 O   0  0  0  0  0  0  0  0  0  0  0  0
   26.9762   15.5430    5.6143 C   0  0  0  0  0  0  0  0  0  0  0  0
   32.4725   10.4414    1.1134 O   0  0  0  0  0  0  0  0  0  0  0  0
   35.2385    9.2810    2.0692 O   0  0  0  0  0  0  0  0  0  0  0  0
   26.9731   13.3879    6.5920 C   0  0  0  0  0  0  0  0  0  0  0  0
   26.5839   16.8546    5.7620 C   0  0  0  0  0  0  0  0  0  0  0  0
   27.0201   14.9864    6.8241 C   0  0  1  0  0  0  0  0  0  0  0  0
   28.4552    3.2628   11.1875 F   0  0  0  0  0  0  0  0  0  0  0  0
  1  2  1  6  0  0  0
  1 10  1  0  0  0  0
  1  3  1  0  0  0  0
  3  4  1  6  0  0  0
  3  6  1  0  0  0  0
  5 46  2  0  0  0  0
  6 42  1  1  0  0  0
  6  8  1  0  0  0  0
  7 47  1  0  0  0  0
  8  9  1  0  0  0  0
  8 49  1  1  0  0  0
  9 10  1  0  0  0  0
  9 11  1  1  0  0  0
 11 12  1  0  0  0  0
 13 14  1  1  0  0  0
 13 15  1  0  0  0  0
 13 21  1  0  0  0  0
 14 46  1  0  0  0  0
 15 16  1  0  0  0  0
 16 17  1  1  0  0  0
 16 18  1  0  0  0  0
 18  2  1  6  0  0  0
 18 19  1  0  0  0  0
 19 20  1  1  0  0  0
 19 21  1  0  0  0  0
 21 22  1  6  0  0  0
 23 20  1  1  0  0  0
 23 24  1  0  0  0  0
 23 28  1  0  0  0  0
 24 25  1  1  0  0  0
 24 26  1  0  0  0  0
 26 27  1  0  0  0  0
 26 32  1  6  0  0  0
 27 28  1  0  0  0  0
 27 29  1  1  0  0  0
 29 30  1  0  0  0  0
 31 32  1  1  0  0  0
 31 33  1  0  0  0  0
 31 39  1  0  0  0  0
 33 36  1  0  0  0  0
 33 41  1  6  0  0  0
 34 40  1  0  0  0  0
 35 48  1  0  0  0  0
 36 37  1  0  0  0  0
 36 45  1  1  0  0  0
 37 38  1  0  0  0  0
 37 44  1  1  0  0  0
 38 39  1  0  0  0  0
 38 40  1  6  0  0  0
 43 47  1  0  0  0  0
 46 48  1  0  0  0  0
 48 43  1  6  0  0  0
M  END
>  <CHROM.1>
-67.83437135,-69.97392473,-176.65726232,-157.38578450,-179.21897160,-177.98850977
175.64042449,-62.64895178,172.11326724,-177.79788653,65.55216441,-79.67548400
-115.58812950,29.45327319,8.77658752,6.55374065,2.23692844,-0.84826195,2.77667733

>  <Name>
ligand

>  <RI>
0

>  <Rbt.Current_Directory>
/home/itssahil/PROJECTS/Mol_Feturizer/New_Systems/rnas/4PDQ

>  <Rbt.Executable>
rbdock ($Id: //depot/dev/client3/rdock/2013.1/src/exe/rbdock.cxx#4 $)

>  <Rbt.Library>
libRbt.so (2013.1, Build901 2013/11/27)

>  <Rbt.Parameter_File>
/export/apps/rDock/src/rDock_2013.1_src/data/scripts/dock_solv.prm

>  <Rbt.Receptor>
prm/pocket_docking_7.prm

>  <SCORE>
-12.7184

>  <SCORE.INTER>
-1.74146

>  <SCORE.INTER.CONST>
1

>  <SCORE.INTER.POLAR>
0

>  <SCORE.INTER.ROT>
13

>  <SCORE.INTER.SOLV>
19.6125

>  <SCORE.INTER.VDW>
-19.9651

>  <SCORE.INTER.norm>
-0.03554

>  <SCORE.INTRA>
-10.9769

>  <SCORE.INTRA.DIHEDRAL>
-30.5707

>  <SCORE.INTRA.DIHEDRAL.0>
34.5115

>  <SCORE.INTRA.POLAR>
0

>  <SCORE.INTRA.POLAR.0>
0

>  <SCORE.INTRA.REPUL>
0

>  <SCORE.INTRA.REPUL.0>
0

>  <SCORE.INTRA.SOLV>
1.81856

>  <SCORE.INTRA.SOLV.lig_0>
-122.812

>  <SCORE.INTRA.VDW>
3.39913

>  <SCORE.INTRA.VDW.0>
-7.46208

>  <SCORE.INTRA.norm>
-0.224019

>  <SCORE.RESTR>
0

>  <SCORE.RESTR.CAVITY>
0

>  <SCORE.RESTR.norm>
0

>  <SCORE.SYSTEM>
0

>  <SCORE.SYSTEM.CONST>
0

>  <SCORE.SYSTEM.DIHEDRAL>
0

>  <SCORE.SYSTEM.SOLV>
0

>  <SCORE.SYSTEM.norm>
0

>  <SCORE.heavy>
49

>  <SCORE.norm>
-0.259559

>  <RMSD>
10.243

$$$$
ligand
 OpenBabel11021811513D
libRbt.so/2013.1/901 2013/11/27
 49 52  0  0  0  0  0  0  0  0999 V2000
   26.0535   15.5557    6.2908 C   0  0  2  0  0  0  0  0  0  0  0  0
   26.5627   15.7359    7.5792 O   0  0  0  0  0  0  0  0  0  0  0  0
   26.0244   16.9352    5.5336 C   0  0  2  0  0  0  0  0  0  0  0  0
   27.4351   17.4996    5.4717 N   0  0  0  0  0  0  0  0  0  0  0  0
   28.0085    9.7802    9.5486 O   0  0  0  0  0  0  0  0  0  0  0  0
   25.0550   17.9147    6.2356 C   0  0  2  0  0  0  0  0  0  0  0  0
   24.6369    8.5439   10.4331 N   0  0  0  0  0  0  0  0  0  0  0  0
   23.6420   17.3145    6.3037 C   0  0  2  0  0  0  0  0  0  0  0  0
   23.6315   15.9191    7.0601 C   0  0  2  0  0  0  0  0  0  0  0  0
   24.6412   15.0036    6.3653 O   0  0  0  0  0  0  0  0  0  0  0  0
   22.2077   15.2913    7.0766 C   0  0  0  0  0  0  0  0  0  0  0  0
   21.2613   16.0359    7.8274 N   0  0  0  0  0  0  0  0  0  0  0  0
   26.1405   12.0042    9.7468 C   0  0  2  0  0  0  0  0  0  0  0  0
   26.3168   10.9853   10.8229 N   0  0  0  0  0  0  0  0  0  0  0  0
   27.5963   12.5931    9.4149 C   0  0  0  0  0  0  0  0  0  0  0  0
   27.5057   13.6646    8.2651 C   0  0  2  0  0  0  0  0  0  0  0  0
   28.8309   14.2266    7.9656 N   0  0  0  0  0  0  0  0  0  0  0  0
   26.5747   14.8199    8.6840 C   0  0  2  0  0  0  0  0  0  0  0  0
   25.1298   14.2720    9.0229 C   0  0  2  0  0  0  0  0  0  0  0  0
   24.3200   15.4468    9.4018 O   0  0  0  0  0  0  0  0  0  0  0  0
   25.2423   13.2267   10.2460 C   0  0  1  0  0  0  0  0  0  0  0  0
   23.9611   12.7626   10.5339 O   0  0  0  0  0  0  0  0  0  0  0  0
   24.6737   16.4170   10.1741 C   0  0  1  0  0  0  0  0  0  0  0  0
   24.6328   17.8370    9.5364 C   0  0  2  0  0  0  0  0  0  0  0  0
   25.8842   18.0996    8.9841 O   0  0  0  0  0  0  0  0  0  0  0  0
   24.4043   18.6209   10.7617 C   0  0  1  0  0  0  0  0  0  0  0  0
   23.4128   17.8279   11.6681 C   0  0  2  0  0  0  0  0  0  0  0  0
   23.8988   16.5331   11.4117 O   0  0  0  0  0  0  0  0  0  0  0  0
   21.9141   18.0733   11.4878 C   0  0  0  0  0  0  0  0  0  0  0  0
   21.2640   17.3020   12.4804 O   0  0  0  0  0  0  0  0  0  0  0  0
   26.0251   18.0969   12.5285 C   0  0  2  0  0  0  0  0  0  0  0  0
   25.7471   18.8118   11.3993 O   0  0  0  0  0  0  0  0  0  0  0  0
   27.1627   18.6903   13.3062 C   0  0  1  0  0  0  0  0  0  0  0  0
   25.7846   13.2930   13.2430 N   0  0  0  0  0  0  0  0  0  0  0  0
   26.6955    9.4296   12.9384 O   0  0  0  0  0  0  0  0  0  0  0  0
   27.4621   17.7883   14.5659 C   0  0  2  0  0  0  0  0  0  0  0  0
   27.7830   16.2955   14.2092 C   0  0  1  0  0  0  0  0  0  0  0  0
   26.6712   15.7440   13.4707 C   0  0  1  0  0  0  0  0  0  0  0  0
   26.3624   16.5944   12.2530 O   0  0  0  0  0  0  0  0  0  0  0  0
   26.9727   14.2394   13.0485 C   0  0  0  0  0  0  0  0  0  0  0  0
   28.3246   18.7278   12.5094 N   0  0  0  0  0  0  0  0  0  0  0  0
   25.0206   18.8926    5.6450 O   0  0  0  0  0  0  0  0  0  0  0  0
   26.8454    7.7411   11.4263 C   0  0  0  0  0  0  0  0  0  0  0  0
   28.7178   16.2759   13.5434 O   0  0  0  0  0  0  0  0  0  0  0  0
   26.5221   17.7755   15.2288 O   0  0  0  0  0  0  0  0  0  0  0  0
   27.3163    9.8964   10.5699 C   0  0  0  0  0  0  0  0  0  0  0  0
   25.4808    7.9212   11.3886 C   0  0  0  0  0  0  0  0  0  0  0  0
   27.4018    8.8838   11.8264 C   0  0  1  0  0  0  0  0  0  0  0  0
   23.1444   17.1120    5.0042 F   0  0  0  0  0  0  0  0  0  0  0  0
  1  2  1  1  0  0  0
  1 10  1  0  0  0  0
  1  3  1  0  0  0  0
  3  4  1  1  0  0  0
  3  6  1  0  0  0  0
  5 46  2  0  0  0  0
  6 42  1  6  0  0  0
  6  8  1  0  0  0  0
  7 47  1  0  0  0  0
  8  9  1  0  0  0  0
  8 49  1  6  0  0  0
  9 10  1  0  0  0  0
  9 11  1  6  0  0  0
 11 12  1  0  0  0  0
 13 14  1  1  0  0  0
 13 15  1  0  0  0  0
 13 21  1  0  0  0  0
 14 46  1  0  0  0  0
 15 16  1  0  0  0  0
 16 17  1  1  0  0  0
 16 18  1  0  0  0  0
 18  2  1  6  0  0  0
 18 19  1  0  0  0  0
 19 20  1  1  0  0  0
 19 21  1  0  0  0  0
 21 22  1  6  0  0  0
 23 20  1  6  0  0  0
 23 24  1  0  0  0  0
 23 28  1  0  0  0  0
 24 25  1  1  0  0  0
 24 26  1  0  0  0  0
 26 27  1  0  0  0  0
 26 32  1  1  0  0  0
 27 28  1  0  0  0  0
 27 29  1  6  0  0  0
 29 30  1  0  0  0  0
 31 32  1  6  0  0  0
 31 33  1  0  0  0  0
 31 39  1  0  0  0  0
 33 36  1  0  0  0  0
 33 41  1  6  0  0  0
 34 40  1  0  0  0  0
 35 48  1  0  0  0  0
 36 37  1  0  0  0  0
 36 45  1  1  0  0  0
 37 38  1  0  0  0  0
 37 44  1  6  0  0  0
 38 39  1  0  0  0  0
 38 40  1  6  0  0  0
 43 47  1  0  0  0  0
 46 48  1  0  0  0  0
 48 43  1  6  0  0  0
M  END
>  <CHROM.1>
168.99798718,66.29545088,-65.53583113,-53.64509136,-43.97163568,121.30700234
-106.84212614,-176.31370496,-160.99569926,137.00997803,79.28616976,44.87069283
168.21418060,25.60966229,15.09748644,10.07354802,2.49002748,-1.25085833,0.52930985

>  <Name>
ligand

>  <RI>
0

>  <Rbt.Current_Directory>
/home/itssahil/PROJECTS/Mol_Feturizer/New_Systems/rnas/4PDQ

>  <Rbt.Executable>
rbdock ($Id: //depot/dev/client3/rdock/2013.1/src/exe/rbdock.cxx#4 $)

>  <Rbt.Library>
libRbt.so (2013.1, Build901 2013/11/27)

>  <Rbt.Parameter_File>
/export/apps/rDock/src/rDock_2013.1_src/data/scripts/dock_solv.prm

>  <Rbt.Receptor>
prm/blind_docking_100.prm

>  <SCORE>
19.8623

>  <SCORE.INTER>
7.13598

>  <SCORE.INTER.CONST>
1

>  <SCORE.INTER.POLAR>
0

>  <SCORE.INTER.ROT>
13

>  <SCORE.INTER.SOLV>
38.2965

>  <SCORE.INTER.VDW>
-20.2748

>  <SCORE.INTER.norm>
0.145632

>  <SCORE.INTRA>
7.79208

>  <SCORE.INTRA.DIHEDRAL>
-8.47633

>  <SCORE.INTRA.DIHEDRAL.0>
34.5115

>  <SCORE.INTRA.POLAR>
0

>  <SCORE.INTRA.POLAR.0>
0

>  <SCORE.INTRA.REPUL>
0

>  <SCORE.INTRA.REPUL.0>
0

>  <SCORE.INTRA.SOLV>
7.51722

>  <SCORE.INTRA.SOLV.lig_0>
-122.812

>  <SCORE.INTRA.VDW>
8.27164

>  <SCORE.INTRA.VDW.0>
-7.46208

>  <SCORE.INTRA.norm>
0.159022

>  <SCORE.RESTR>
4.93427

>  <SCORE.RESTR.CAVITY>
4.93427

>  <SCORE.RESTR.norm>
0.100699

>  <SCORE.SYSTEM>
0

>  <SCORE.SYSTEM.CONST>
0

>  <SCORE.SYSTEM.DIHEDRAL>
0

>  <SCORE.SYSTEM.SOLV>
0

>  <SCORE.SYSTEM.norm>
0

>  <SCORE.heavy>
49

>  <SCORE.norm>
0.405354

>  <RMSD>
10.244

$$$$
ligand
 OpenBabel11021811513D
libRbt.so/2013.1/901 2013/11/27
 49 52  0  0  0  0  0  0  0  0999 V2000
   27.6983   12.2021    7.9553 C   0  0  2  0  0  0  0  0  0  0  0  0
   27.8157   11.3887    9.0852 O   0  0  0  0  0  0  0  0  0  0  0  0
   28.7673   13.3556    8.0183 C   0  0  2  0  0  0  0  0  0  0  0  0
   30.1576   12.7435    8.0885 N   0  0  0  0  0  0  0  0  0  0  0  0
   27.9974    4.5040    8.6639 O   0  0  0  0  0  0  0  0  0  0  0  0
   28.4946   14.2772    9.2299 C   0  0  2  0  0  0  0  0  0  0  0  0
   23.0310    1.9170   10.1618 N   0  0  0  0  0  0  0  0  0  0  0  0
   27.0781   14.8675    9.1469 C   0  0  2  0  0  0  0  0  0  0  0  0
   25.9709   13.7321    9.0798 C   0  0  2  0  0  0  0  0  0  0  0  0
   26.3112   12.8168    7.9023 O   0  0  0  0  0  0  0  0  0  0  0  0
   24.5437   14.3366    8.9399 C   0  0  0  0  0  0  0  0  0  0  0  0
   23.5045   13.3718    8.9950 N   0  0  0  0  0  0  0  0  0  0  0  0
   27.1724    7.1322    9.6057 C   0  0  2  0  0  0  0  0  0  0  0  0
   26.5610    5.8602   10.0906 N   0  0  0  0  0  0  0  0  0  0  0  0
   27.3277    8.0945   10.8810 C   0  0  0  0  0  0  0  0  0  0  0  0
   27.9919    9.4586   10.4614 C   0  0  2  0  0  0  0  0  0  0  0  0
   28.1212   10.3573   11.6180 N   0  0  0  0  0  0  0  0  0  0  0  0
   27.1319   10.1654    9.3946 C   0  0  2  0  0  0  0  0  0  0  0  0
   26.9555    9.2403    8.1234 C   0  0  2  0  0  0  0  0  0  0  0  0
   26.1309   10.0046    7.1666 O   0  0  0  0  0  0  0  0  0  0  0  0
   26.2146    7.8786    8.5684 C   0  0  1  0  0  0  0  0  0  0  0  0
   26.0617    7.0826    7.4359 O   0  0  0  0  0  0  0  0  0  0  0  0
   25.9617    9.7526    5.9133 C   0  0  1  0  0  0  0  0  0  0  0  0
   24.8218   10.5486    5.2123 C   0  0  2  0  0  0  0  0  0  0  0  0
   23.6509    9.7999    5.3047 O   0  0  0  0  0  0  0  0  0  0  0  0
   25.3623   10.5452    3.8427 C   0  0  1  0  0  0  0  0  0  0  0  0
   26.9071   10.7441    3.9294 C   0  0  2  0  0  0  0  0  0  0  0  0
   27.1452    9.9662    5.0769 O   0  0  0  0  0  0  0  0  0  0  0  0
   27.4542   12.1721    3.9126 C   0  0  0  0  0  0  0  0  0  0  0  0
   28.8641   12.0558    3.8741 O   0  0  0  0  0  0  0  0  0  0  0  0
   25.8697    8.6307    2.3934 C   0  0  2  0  0  0  0  0  0  0  0  0
   24.9802    9.2275    3.2395 O   0  0  0  0  0  0  0  0  0  0  0  0
   26.0669    9.4207    1.1332 C   0  0  1  0  0  0  0  0  0  0  0  0
   25.8085    4.0872    1.9918 N   0  0  0  0  0  0  0  0  0  0  0  0
   26.5718    3.2477   11.5441 O   0  0  0  0  0  0  0  0  0  0  0  0
   27.0639    8.6502    0.1832 C   0  0  2  0  0  0  0  0  0  0  0  0
   26.5998    7.1943   -0.1686 C   0  0  1  0  0  0  0  0  0  0  0  0
   26.4265    6.4518    1.0579 C   0  0  1  0  0  0  0  0  0  0  0  0
   25.4713    7.1726    1.9901 O   0  0  0  0  0  0  0  0  0  0  0  0
   25.9122    4.9774    0.7501 C   0  0  0  0  0  0  0  0  0  0  0  0
   24.8393    9.5628    0.4555 N   0  0  0  0  0  0  0  0  0  0  0  0
   29.2576   15.1282    9.2302 O   0  0  0  0  0  0  0  0  0  0  0  0
   25.0451    3.4562    9.8750 C   0  0  0  0  0  0  0  0  0  0  0  0
   25.5899    7.2579   -0.7104 O   0  0  0  0  0  0  0  0  0  0  0  0
   28.0734    8.5537    0.7261 O   0  0  0  0  0  0  0  0  0  0  0  0
   27.0920    4.5853    9.5062 C   0  0  0  0  0  0  0  0  0  0  0  0
   24.4026    2.2789   10.1864 C   0  0  0  0  0  0  0  0  0  0  0  0
   26.3421    3.3007   10.1377 C   0  0  1  0  0  0  0  0  0  0  0  0
   26.9582   15.6648    7.9949 F   0  0  0  0  0  0  0  0  0  0  0  0
  1  2  1  1  0  0  0
  1 10  1  0  0  0  0
  1  3  1  0  0  0  0
  3  4  1  1  0  0  0
  3  6  1  0  0  0  0
  5 46  2  0  0  0  0
  6 42  1  6  0  0  0
  6  8  1  0  0  0  0
  7 47  1  0  0  0  0
  8  9  1  0  0  0  0
  8 49  1  6  0  0  0
  9 10  1  0  0  0  0
  9 11  1  6  0  0  0
 11 12  1  0  0  0  0
 13 14  1  1  0  0  0
 13 15  1  0  0  0  0
 13 21  1  0  0  0  0
 14 46  1  0  0  0  0
 15 16  1  0  0  0  0
 16 17  1  1  0  0  0
 16 18  1  0  0  0  0
 18  2  1  6  0  0  0
 18 19  1  0  0  0  0
 19 20  1  6  0  0  0
 19 21  1  0  0  0  0
 21 22  1  6  0  0  0
 23 20  1  1  0  0  0
 23 24  1  0  0  0  0
 23 28  1  0  0  0  0
 24 25  1  6  0  0  0
 24 26  1  0  0  0  0
 26 27  1  0  0  0  0
 26 32  1  1  0  0  0
 27 28  1  0  0  0  0
 27 29  1  1  0  0  0
 29 30  1  0  0  0  0
 31 32  1  1  0  0  0
 31 33  1  0  0  0  0
 31 39  1  0  0  0  0
 33 36  1  0  0  0  0
 33 41  1  6  0  0  0
 34 40  1  0  0  0  0
 35 48  1  0  0  0  0
 36 37  1  0  0  0  0
 36 45  1  1  0  0  0
 37 38  1  0  0  0  0
 37 44  1  1  0  0  0
 38 39  1  0  0  0  0
 38 40  1  6  0  0  0
 43 47  1  0  0  0  0
 46 48  1  0  0  0  0
 48 43  1  1  0  0  0
M  END
>  <CHROM.1>
-174.23930355,159.78056345,-174.68674998,-139.94519646,165.20517426,168.18682632
-143.84471744,-174.60458436,-65.91405749,175.42058053,176.56921090,-70.96169998
117.52851215,26.52450019,9.20656538,6.45573446,-0.45434187,-1.39636319,-1.21166207

>  <Name>
ligand

>  <RI>
0

>  <Rbt.Current_Directory>
/home/itssahil/PROJECTS/Mol_Feturizer/New_Systems/rnas/4PDQ

>  <Rbt.Executable>
rbdock ($Id: //depot/dev/client3/rdock/2013.1/src/exe/rbdock.cxx#4 $)

>  <Rbt.Library>
libRbt.so (2013.1, Build901 2013/11/27)

>  <Rbt.Parameter_File>
/export/apps/rDock/src/rDock_2013.1_src/data/scripts/dock_solv.prm

>  <Rbt.Receptor>
prm/pocket_docking_7.prm

>  <SCORE>
-9.171

>  <SCORE.INTER>
2.05175

>  <SCORE.INTER.CONST>
1

>  <SCORE.INTER.POLAR>
0

>  <SCORE.INTER.ROT>
13

>  <SCORE.INTER.SOLV>
18.6737

>  <SCORE.INTER.VDW>
-17.1234

>  <SCORE.INTER.norm>
0.0418725

>  <SCORE.INTRA>
-11.2228

>  <SCORE.INTRA.DIHEDRAL>
-23.3879

>  <SCORE.INTRA.DIHEDRAL.0>
34.5115

>  <SCORE.INTRA.POLAR>
0

>  <SCORE.INTRA.POLAR.0>
0

>  <SCORE.INTRA.REPUL>
0

>  <SCORE.INTRA.REPUL.0>
0

>  <SCORE.INTRA.SOLV>
-5.25343

>  <SCORE.INTRA.SOLV.lig_0>
-122.812

>  <SCORE.INTRA.VDW>
3.09792

>  <SCORE.INTRA.VDW.0>
-7.46208

>  <SCORE.INTRA.norm>
-0.229036

>  <SCORE.RESTR>
0

>  <SCORE.RESTR.CAVITY>
0

>  <SCORE.RESTR.norm>
0

>  <SCORE.SYSTEM>
0

>  <SCORE.SYSTEM.CONST>
0

>  <SCORE.SYSTEM.DIHEDRAL>
0

>  <SCORE.SYSTEM.SOLV>
0

>  <SCORE.SYSTEM.norm>
0

>  <SCORE.heavy>
49

>  <SCORE.norm>
-0.187163

>  <RMSD>
10.245

$$$$
ligand
 OpenBabel11021811513D
libRbt.so/2013.1/901 2013/11/27
 49 52  0  0  0  0  0  0  0  0999 V2000
   23.6886   13.7232   10.8948 C   0  0  2  0  0  0  0  0  0  0  0  0
   24.5388   13.1775    9.9297 O   0  0  0  0  0  0  0  0  0  0  0  0
   22.5111   14.4940   10.1902 C   0  0  2  0  0  0  0  0  0  0  0  0
   21.7480   13.5290    9.2964 N   0  0  0  0  0  0  0  0  0  0  0  0
   28.1805    8.4905    9.9623 O   0  0  0  0  0  0  0  0  0  0  0  0
   23.0593   15.6954    9.3852 C   0  0  2  0  0  0  0  0  0  0  0  0
   28.6868    3.3611   11.2188 N   0  0  0  0  0  0  0  0  0  0  0  0
   23.8426   16.6451   10.3051 C   0  0  2  0  0  0  0  0  0  0  0  0
   25.0394   15.9015   11.0361 C   0  0  2  0  0  0  0  0  0  0  0  0
   24.4582   14.6934   11.7730 O   0  0  0  0  0  0  0  0  0  0  0  0
   25.7933   16.8551   12.0076 C   0  0  0  0  0  0  0  0  0  0  0  0
   26.6760   16.1878   12.8961 N   0  0  0  0  0  0  0  0  0  0  0  0
   25.6411    9.1826   11.2061 C   0  0  2  0  0  0  0  0  0  0  0  0
   26.1629    7.7864   11.1334 N   0  0  0  0  0  0  0  0  0  0  0  0
   24.6942    9.3971    9.9279 C   0  0  0  0  0  0  0  0  0  0  0  0
   24.0777   10.8456    9.9386 C   0  0  2  0  0  0  0  0  0  0  0  0
   23.2238   11.0614    8.7612 N   0  0  0  0  0  0  0  0  0  0  0  0
   25.1993   11.9033    9.9219 C   0  0  2  0  0  0  0  0  0  0  0  0
   26.1551   11.7170   11.1688 C   0  0  2  0  0  0  0  0  0  0  0  0
   27.1812   12.7733   11.0652 O   0  0  0  0  0  0  0  0  0  0  0  0
   26.8235   10.2508   11.0988 C   0  0  1  0  0  0  0  0  0  0  0  0
   27.6659   10.1095   12.1988 O   0  0  0  0  0  0  0  0  0  0  0  0
   27.4556   13.4902   10.0291 C   0  0  1  0  0  0  0  0  0  0  0  0
   28.5784   14.5519   10.2205 C   0  0  2  0  0  0  0  0  0  0  0  0
   27.9825   15.7438   10.6259 O   0  0  0  0  0  0  0  0  0  0  0  0
   29.0495   14.6262    8.8275 C   0  0  1  0  0  0  0  0  0  0  0  0
   29.0326   13.1848    8.2312 C   0  0  2  0  0  0  0  0  0  0  0  0
   27.8495   12.7297    8.8407 O   0  0  0  0  0  0  0  0  0  0  0  0
   30.2876   12.3243    8.3843 C   0  0  0  0  0  0  0  0  0  0  0  0
   29.9788   11.0677    7.8114 O   0  0  0  0  0  0  0  0  0  0  0  0
   27.6815   15.2002    6.8723 C   0  0  2  0  0  0  0  0  0  0  0  0
   28.1187   15.5598    8.1145 O   0  0  0  0  0  0  0  0  0  0  0  0
   26.9895   16.3303    6.1686 C   0  0  1  0  0  0  0  0  0  0  0  0
   25.9952   10.9447    5.9558 N   0  0  0  0  0  0  0  0  0  0  0  0
   28.5014    5.6818    9.2154 O   0  0  0  0  0  0  0  0  0  0  0  0
   26.4673   15.8314    4.7656 C   0  0  2  0  0  0  0  0  0  0  0  0
   25.5089   14.5935    4.8545 C   0  0  1  0  0  0  0  0  0  0  0  0
   26.1995   13.5174    5.5258 C   0  0  1  0  0  0  0  0  0  0  0  0
   26.7126   13.9720    6.8790 O   0  0  0  0  0  0  0  0  0  0  0  0
   25.2469   12.2516    5.6778 C   0  0  0  0  0  0  0  0  0  0  0  0
   25.8780   16.7592    6.9215 N   0  0  0  0  0  0  0  0  0  0  0  0
   22.1835   16.2616    8.9175 O   0  0  0  0  0  0  0  0  0  0  0  0
   28.8048    5.8985   11.4562 C   0  0  0  0  0  0  0  0  0  0  0  0
   24.5910   14.8911    5.4762 O   0  0  0  0  0  0  0  0  0  0  0  0
   27.3759   15.5025    4.1416 O   0  0  0  0  0  0  0  0  0  0  0  0
   27.4865    7.5905   10.4563 C   0  0  0  0  0  0  0  0  0  0  0  0
   29.3144    4.6205   11.4002 C   0  0  0  0  0  0  0  0  0  0  0  0
   27.9201    6.0338   10.4690 C   0  0  1  0  0  0  0  0  0  0  0  0
   22.9877   17.1718   11.2894 F   0  0  0  0  0  0  0  0  0  0  0  0
  1  2  1  6  0  0  0
  1 10  1  0  0  0  0
  1  3  1  0  0  0  0
  3  4  1  6  0  0  0
  3  6  1  0  0  0  0
  5 46  2  0  0  0  0
  6 42  1  1  0  0  0
  6  8  1  0  0  0  0
  7 47  1  0  0  0  0
  8  9  1  0  0  0  0
  8 49  1  1  0  0  0
  9 10  1  0  0  0  0
  9 11  1  1  0  0  0
 11 12  1  0  0  0  0
 13 14  1  6  0  0  0
 13 15  1  0  0  0  0
 13 21  1  0  0  0  0
 14 46  1  0  0  0  0
 15 16  1  0  0  0  0
 16 17  1  6  0  0  0
 16 18  1  0  0  0  0
 18  2  1  1  0  0  0
 18 19  1  0  0  0  0
 19 20  1  6  0  0  0
 19 21  1  0  0  0  0
 21 22  1  1  0  0  0
 23 20  1  1  0  0  0
 23 24  1  0  0  0  0
 23 28  1  0  0  0  0
 24 25  1  6  0  0  0
 24 26  1  0  0  0  0
 26 27  1  0  0  0  0
 26 32  1  6  0  0  0
 27 28  1  0  0  0  0
 27 29  1  1  0  0  0
 29 30  1  0  0  0  0
 31 32  1  1  0  0  0
 31 33  1  0  0  0  0
 31 39  1  0  0  0  0
 33 36  1  0  0  0  0
 33 41  1  1  0  0  0
 34 40  1  0  0  0  0
 35 48  1  0  0  0  0
 36 37  1  0  0  0  0
 36 45  1  6  0  0  0
 37 38  1  0  0  0  0
 37 44  1  1  0  0  0
 38 39  1  0  0  0  0
 38 40  1  1  0  0  0
 43 47  1  0  0  0  0
 46 48  1  0  0  0  0
 48 43  1  1  0  0  0
M  END
>  <CHROM.1>
-140.52676756,61.59363003,167.08104490,93.10098747,-15.37330055,178.96156516
-136.29564962,177.61028029,-168.59413264,161.47082862,-44.70617764,-53.71493871
-41.46150263,26.31115834,12.57049662,9.24559684,2.06327580,0.88927096,-0.63262289

>  <Name>
ligand

>  <RI>
0

>  <Rbt.Current_Directory>
/home/itssahil/PROJECTS/Mol_Feturizer/New_Systems/rnas/4PDQ

>  <Rbt.Executable>
rbdock ($Id: //depot/dev/client3/rdock/2013.1/src/exe/rbdock.cxx#4 $)

>  <Rbt.Library>
libRbt.so (2013.1, Build901 2013/11/27)

>  <Rbt.Parameter_File>
/export/apps/rDock/src/rDock_2013.1_src/data/scripts/dock_solv.prm

>  <Rbt.Receptor>
prm/blind_docking_60.prm

>  <SCORE>
13.8292

>  <SCORE.INTER>
1.57356

>  <SCORE.INTER.CONST>
1

>  <SCORE.INTER.POLAR>
0

>  <SCORE.INTER.ROT>
13

>  <SCORE.INTER.SOLV>
26.1781

>  <SCORE.INTER.VDW>
-19.9436

>  <SCORE.INTER.norm>
0.0321135

>  <SCORE.INTRA>
7.76312

>  <SCORE.INTRA.DIHEDRAL>
-10.9286

>  <SCORE.INTRA.DIHEDRAL.0>
34.5115

>  <SCORE.INTRA.POLAR>
0

>  <SCORE.INTRA.POLAR.0>
0

>  <SCORE.INTRA.REPUL>
0.604962

>  <SCORE.INTRA.REPUL.0>
0

>  <SCORE.INTRA.SOLV>
6.51138

>  <SCORE.INTRA.SOLV.lig_0>
-122.812

>  <SCORE.INTRA.VDW>
6.9469

>  <SCORE.INTRA.VDW.0>
-7.46208

>  <SCORE.INTRA.norm>
0.158431

>  <SCORE.RESTR>
4.4925

>  <SCORE.RESTR.CAVITY>
4.4925

>  <SCORE.RESTR.norm>
0.0916837

>  <SCORE.SYSTEM>
0

>  <SCORE.SYSTEM.CONST>
0

>  <SCORE.SYSTEM.DIHEDRAL>
0

>  <SCORE.SYSTEM.SOLV>
0

>  <SCORE.SYSTEM.norm>
0

>  <SCORE.heavy>
49

>  <SCORE.norm>
0.282228

>  <RMSD>
10.253

$$$$
ligand
 OpenBabel11021811513D
libRbt.so/2013.1/901 2013/11/27
 49 52  0  0  0  0  0  0  0  0999 V2000
   28.6314    7.4777    6.2356 C   0  0  2  0  0  0  0  0  0  0  0  0
   27.5266    7.3520    5.3896 O   0  0  0  0  0  0  0  0  0  0  0  0
   28.8519    6.1336    7.0241 C   0  0  2  0  0  0  0  0  0  0  0  0
   29.0710    5.0032    6.0308 N   0  0  0  0  0  0  0  0  0  0  0  0
   23.4566    8.1182    0.3922 O   0  0  0  0  0  0  0  0  0  0  0  0
   27.6453    5.8469    7.9481 C   0  0  2  0  0  0  0  0  0  0  0  0
   22.6627   11.5305   -3.6523 N   0  0  0  0  0  0  0  0  0  0  0  0
   27.4319    7.0108    8.9285 C   0  0  2  0  0  0  0  0  0  0  0  0
   27.2075    8.3862    8.1687 C   0  0  2  0  0  0  0  0  0  0  0  0
   28.3963    8.6006    7.2299 O   0  0  0  0  0  0  0  0  0  0  0  0
   27.0477    9.5688    9.1676 C   0  0  0  0  0  0  0  0  0  0  0  0
   28.1971    9.8042    9.9660 N   0  0  0  0  0  0  0  0  0  0  0  0
   26.0575    8.7282    1.5489 C   0  0  2  0  0  0  0  0  0  0  0  0
   25.3863    9.5989    0.5398 N   0  0  0  0  0  0  0  0  0  0  0  0
   25.0684    8.6209    2.8085 C   0  0  0  0  0  0  0  0  0  0  0  0
   25.6915    7.6943    3.9181 C   0  0  2  0  0  0  0  0  0  0  0  0
   24.8033    7.6042    5.0864 N   0  0  0  0  0  0  0  0  0  0  0  0
   27.0480    8.2587    4.3853 C   0  0  2  0  0  0  0  0  0  0  0  0
   28.0469    8.3814    3.1647 C   0  0  2  0  0  0  0  0  0  0  0  0
   29.3074    8.9192    3.7137 O   0  0  0  0  0  0  0  0  0  0  0  0
   27.4150    9.3864    2.0729 C   0  0  1  0  0  0  0  0  0  0  0  0
   28.3114    9.4871    1.0117 O   0  0  0  0  0  0  0  0  0  0  0  0
   30.5061    8.6005    3.3613 C   0  0  1  0  0  0  0  0  0  0  0  0
   30.8995    8.9647    1.8994 C   0  0  2  0  0  0  0  0  0  0  0  0
   30.5967    7.8758    1.0855 O   0  0  0  0  0  0  0  0  0  0  0  0
   32.3518    9.1109    2.0933 C   0  0  1  0  0  0  0  0  0  0  0  0
   32.5909    9.8067    3.4689 C   0  0  2  0  0  0  0  0  0  0  0  0
   31.5660    9.1731    4.1946 O   0  0  0  0  0  0  0  0  0  0  0  0
   32.6483   11.3345    3.5060 C   0  0  0  0  0  0  0  0  0  0  0  0
   33.7348   11.7103    2.6809 O   0  0  0  0  0  0  0  0  0  0  0  0
   33.2023    7.2032    0.8046 C   0  0  2  0  0  0  0  0  0  0  0  0
   32.9285    7.7289    2.0344 O   0  0  0  0  0  0  0  0  0  0  0  0
   33.9384    5.8993    0.8995 C   0  0  1  0  0  0  0  0  0  0  0  0
   34.4861   10.0708   -2.4453 N   0  0  0  0  0  0  0  0  0  0  0  0
   24.2477   11.3762   -1.0615 O   0  0  0  0  0  0  0  0  0  0  0  0
   34.2660    5.3765   -0.5529 C   0  0  2  0  0  0  0  0  0  0  0  0
   35.0919    6.3922   -1.4161 C   0  0  1  0  0  0  0  0  0  0  0  0
   34.3597    7.6341   -1.5010 C   0  0  1  0  0  0  0  0  0  0  0  0
   34.0316    8.1583   -0.1158 O   0  0  0  0  0  0  0  0  0  0  0  0
   35.1831    8.7119   -2.3337 C   0  0  0  0  0  0  0  0  0  0  0  0
   35.1570    6.0816    1.5836 N   0  0  0  0  0  0  0  0  0  0  0  0
   27.8471    4.8894    8.5386 O   0  0  0  0  0  0  0  0  0  0  0  0
   23.4727    9.5818   -2.2188 C   0  0  0  0  0  0  0  0  0  0  0  0
   36.0922    6.5859   -0.8875 O   0  0  0  0  0  0  0  0  0  0  0  0
   33.2713    5.2054   -1.1047 O   0  0  0  0  0  0  0  0  0  0  0  0
   24.0486    9.1466    0.0350 C   0  0  0  0  0  0  0  0  0  0  0  0
   22.6064   10.2419   -3.0613 C   0  0  0  0  0  0  0  0  0  0  0  0
   23.4475   10.1961   -1.0367 C   0  0  1  0  0  0  0  0  0  0  0  0
   28.5570    7.1485    9.7606 F   0  0  0  0  0  0  0  0  0  0  0  0
  1  2  1  6  0  0  0
  1 10  1  0  0  0  0
  1  3  1  0  0  0  0
  3  4  1  6  0  0  0
  3  6  1  0  0  0  0
  5 46  2  0  0  0  0
  6 42  1  1  0  0  0
  6  8  1  0  0  0  0
  7 47  1  0  0  0  0
  8  9  1  0  0  0  0
  8 49  1  1  0  0  0
  9 10  1  0  0  0  0
  9 11  1  1  0  0  0
 11 12  1  0  0  0  0
 13 14  1  6  0  0  0
 13 15  1  0  0  0  0
 13 21  1  0  0  0  0
 14 46  1  0  0  0  0
 15 16  1  0  0  0  0
 16 17  1  1  0  0  0
 16 18  1  0  0  0  0
 18  2  1  1  0  0  0
 18 19  1  0  0  0  0
 19 20  1  1  0  0  0
 19 21  1  0  0  0  0
 21 22  1  6  0  0  0
 23 20  1  1  0  0  0
 23 24  1  0  0  0  0
 23 28  1  0  0  0  0
 24 25  1  6  0  0  0
 24 26  1  0  0  0  0
 26 27  1  0  0  0  0
 26 32  1  1  0  0  0
 27 28  1  0  0  0  0
 27 29  1  6  0  0  0
 29 30  1  0  0  0  0
 31 32  1  1  0  0  0
 31 33  1  0  0  0  0
 31 39  1  0  0  0  0
 33 36  1  0  0  0  0
 33 41  1  1  0  0  0
 34 40  1  0  0  0  0
 35 48  1  0  0  0  0
 36 37  1  0  0  0  0
 36 45  1  6  0  0  0
 37 38  1  0  0  0  0
 37 44  1  1  0  0  0
 38 39  1  0  0  0  0
 38 40  1  1  0  0  0
 43 47  1  0  0  0  0
 46 48  1  0  0  0  0
 48 43  1  6  0  0  0
M  END
>  <CHROM.1>
-172.35625000,-172.07615430,62.90465388,-59.08032709,142.72537430,64.53778156
83.81474526,-60.97699601,172.41981397,-178.77889850,68.97891607,-79.33091929
169.97719327,29.30260274,8.28039252,2.67353094,-2.57371911,0.18746990,-1.39055192

>  <Name>
ligand

>  <RI>
0

>  <Rbt.Current_Directory>
/home/itssahil/PROJECTS/Mol_Feturizer/New_Systems/rnas/4PDQ

>  <Rbt.Executable>
rbdock ($Id: //depot/dev/client3/rdock/2013.1/src/exe/rbdock.cxx#4 $)

>  <Rbt.Library>
libRbt.so (2013.1, Build901 2013/11/27)

>  <Rbt.Parameter_File>
/export/apps/rDock/src/rDock_2013.1_src/data/scripts/dock_solv.prm

>  <Rbt.Receptor>
prm/pocket_docking_5.prm

>  <SCORE>
-10.1501

>  <SCORE.INTER>
-1.65503

>  <SCORE.INTER.CONST>
1

>  <SCORE.INTER.POLAR>
0

>  <SCORE.INTER.ROT>
13

>  <SCORE.INTER.SOLV>
16.3793

>  <SCORE.INTER.VDW>
-18.8298

>  <SCORE.INTER.norm>
-0.0337762

>  <SCORE.INTRA>
-8.49508

>  <SCORE.INTRA.DIHEDRAL>
-22.171

>  <SCORE.INTRA.DIHEDRAL.0>
34.5115

>  <SCORE.INTRA.POLAR>
0

>  <SCORE.INTRA.POLAR.0>
0

>  <SCORE.INTRA.REPUL>
0

>  <SCORE.INTRA.REPUL.0>
0

>  <SCORE.INTRA.SOLV>
-1.74132

>  <SCORE.INTRA.SOLV.lig_0>
-122.812

>  <SCORE.INTRA.VDW>
3.46109

>  <SCORE.INTRA.VDW.0>
-7.46208

>  <SCORE.INTRA.norm>
-0.173369

>  <SCORE.RESTR>
0

>  <SCORE.RESTR.CAVITY>
0

>  <SCORE.RESTR.norm>
0

>  <SCORE.SYSTEM>
0

>  <SCORE.SYSTEM.CONST>
0

>  <SCORE.SYSTEM.DIHEDRAL>
0

>  <SCORE.SYSTEM.SOLV>
0

>  <SCORE.SYSTEM.norm>
0

>  <SCORE.heavy>
49

>  <SCORE.norm>
-0.207145

>  <RMSD>
10.259

$$$$
ligand
 OpenBabel11021811513D
libRbt.so/2013.1/901 2013/11/27
 49 52  0  0  0  0  0  0  0  0999 V2000
   26.2386   14.7893    7.7864 C   0  0  2  0  0  0  0  0  0  0  0  0
   27.4581   14.1258    7.9428 O   0  0  0  0  0  0  0  0  0  0  0  0
   25.4466   14.1664    6.5772 C   0  0  2  0  0  0  0  0  0  0  0  0
   25.2149   12.6871    6.8423 N   0  0  0  0  0  0  0  0  0  0  0  0
   25.6205    9.8581   12.9173 O   0  0  0  0  0  0  0  0  0  0  0  0
   26.2187   14.3888    5.2558 C   0  0  2  0  0  0  0  0  0  0  0  0
   24.5979    7.5227   11.0989 N   0  0  0  0  0  0  0  0  0  0  0  0
   26.4580   15.8884    5.0200 C   0  0  2  0  0  0  0  0  0  0  0  0
   27.2540   16.5530    6.2218 C   0  0  2  0  0  0  0  0  0  0  0  0
   26.4826   16.2621    7.5105 O   0  0  0  0  0  0  0  0  0  0  0  0
   27.4438   18.0819    6.0022 C   0  0  0  0  0  0  0  0  0  0  0  0
   26.2429   18.7695    5.6879 N   0  0  0  0  0  0  0  0  0  0  0  0
   26.8612   10.5958   10.3893 C   0  0  2  0  0  0  0  0  0  0  0  0
   27.1721    9.3290   11.1144 N   0  0  0  0  0  0  0  0  0  0  0  0
   27.5161   10.4735    8.9289 C   0  0  0  0  0  0  0  0  0  0  0  0
   27.2135   11.7656    8.0820 C   0  0  2  0  0  0  0  0  0  0  0  0
   27.8256   11.6743    6.7482 N   0  0  0  0  0  0  0  0  0  0  0  0
   27.7807   13.0126    8.7892 C   0  0  2  0  0  0  0  0  0  0  0  0
   27.1577   13.1604   10.2359 C   0  0  2  0  0  0  0  0  0  0  0  0
   27.7542   14.3774   10.8211 O   0  0  0  0  0  0  0  0  0  0  0  0
   27.5373   11.8544   11.1029 C   0  0  1  0  0  0  0  0  0  0  0  0
   26.9875   12.0072   12.3733 O   0  0  0  0  0  0  0  0  0  0  0  0
   27.1260   15.3872   11.3197 C   0  0  1  0  0  0  0  0  0  0  0  0
   26.5944   15.2019   12.7715 C   0  0  2  0  0  0  0  0  0  0  0  0
   25.2973   14.7002   12.6968 O   0  0  0  0  0  0  0  0  0  0  0  0
   26.6078   16.6131   13.1915 C   0  0  1  0  0  0  0  0  0  0  0  0
   27.8853   17.2844   12.5991 C   0  0  2  0  0  0  0  0  0  0  0  0
   27.8925   16.6350   11.3514 O   0  0  0  0  0  0  0  0  0  0  0  0
   29.1708   17.2484   13.4267 C   0  0  0  0  0  0  0  0  0  0  0  0
   28.8162   17.6755   14.7284 O   0  0  0  0  0  0  0  0  0  0  0  0
   25.1120   17.1747   11.3286 C   0  0  2  0  0  0  0  0  0  0  0  0
   25.3398   17.2215   12.6737 O   0  0  0  0  0  0  0  0  0  0  0  0
   24.3873   18.3928   10.8363 C   0  0  1  0  0  0  0  0  0  0  0  0
   23.5973   13.2841    9.9534 N   0  0  0  0  0  0  0  0  0  0  0  0
   25.9850    7.3389   14.1164 O   0  0  0  0  0  0  0  0  0  0  0  0
   24.1130   18.2488    9.2891 C   0  0  2  0  0  0  0  0  0  0  0  0
   23.3049   16.9594    8.9104 C   0  0  1  0  0  0  0  0  0  0  0  0
   24.0260   15.8018    9.3851 C   0  0  1  0  0  0  0  0  0  0  0  0
   24.3030   15.9160   10.8722 O   0  0  0  0  0  0  0  0  0  0  0  0
   23.2188   14.4692    9.0605 C   0  0  0  0  0  0  0  0  0  0  0  0
   23.1450   18.5128   11.4911 N   0  0  0  0  0  0  0  0  0  0  0  0
   25.6053   13.9647    4.3896 O   0  0  0  0  0  0  0  0  0  0  0  0
   26.8310    6.7801   12.0838 C   0  0  0  0  0  0  0  0  0  0  0  0
   22.2857   17.0041    9.4366 O   0  0  0  0  0  0  0  0  0  0  0  0
   25.1270   18.1738    8.7511 O   0  0  0  0  0  0  0  0  0  0  0  0
   26.4527    9.0935   12.4089 C   0  0  0  0  0  0  0  0  0  0  0  0
   25.5133    6.6299   11.7137 C   0  0  0  0  0  0  0  0  0  0  0  0
   26.8845    7.6808   13.0642 C   0  0  1  0  0  0  0  0  0  0  0  0
   25.2269   16.5549    4.8883 F   0  0  0  0  0  0  0  0  0  0  0  0
  1  2  1  6  0  0  0
  1 10  1  0  0  0  0
  1  3  1  0  0  0  0
  3  4  1  1  0  0  0
  3  6  1  0  0  0  0
  5 46  2  0  0  0  0
  6 42  1  6  0  0  0
  6  8  1  0  0  0  0
  7 47  1  0  0  0  0
  8  9  1  0  0  0  0
  8 49  1  1  0  0  0
  9 10  1  0  0  0  0
  9 11  1  6  0  0  0
 11 12  1  0  0  0  0
 13 14  1  1  0  0  0
 13 15  1  0  0  0  0
 13 21  1  0  0  0  0
 14 46  1  0  0  0  0
 15 16  1  0  0  0  0
 16 17  1  6  0  0  0
 16 18  1  0  0  0  0
 18  2  1  6  0  0  0
 18 19  1  0  0  0  0
 19 20  1  1  0  0  0
 19 21  1  0  0  0  0
 21 22  1  1  0  0  0
 23 20  1  1  0  0  0
 23 24  1  0  0  0  0
 23 28  1  0  0  0  0
 24 25  1  6  0  0  0
 24 26  1  0  0  0  0
 26 27  1  0  0  0  0
 26 32  1  6  0  0  0
 27 28  1  0  0  0  0
 27 29  1  1  0  0  0
 29 30  1  0  0  0  0
 31 32  1  1  0  0  0
 31 33  1  0  0  0  0
 31 39  1  0  0  0  0
 33 36  1  0  0  0  0
 33 41  1  1  0  0  0
 34 40  1  0  0  0  0
 35 48  1  0  0  0  0
 36 37  1  0  0  0  0
 36 45  1  6  0  0  0
 37 38  1  0  0  0  0
 37 44  1  1  0  0  0
 38 39  1  0  0  0  0
 38 40  1  1  0  0  0
 43 47  1  0  0  0  0
 46 48  1  0  0  0  0
 48 43  1  6  0  0  0
M  END
>  <CHROM.1>
-93.64644718,77.51849330,50.90273300,-168.91409940,125.93479467,79.79213889
-58.12907207,-48.82039922,-145.59058582,-157.90808669,66.16410338,52.44119304
12.08470877,26.07701506,14.14357810,9.88118001,2.71966785,-1.46627799,0.73577349

>  <Name>
ligand

>  <RI>
0

>  <Rbt.Current_Directory>
/home/itssahil/PROJECTS/Mol_Feturizer/New_Systems/rnas/4PDQ

>  <Rbt.Executable>
rbdock ($Id: //depot/dev/client3/rdock/2013.1/src/exe/rbdock.cxx#4 $)

>  <Rbt.Library>
libRbt.so (2013.1, Build901 2013/11/27)

>  <Rbt.Parameter_File>
/export/apps/rDock/src/rDock_2013.1_src/data/scripts/dock_solv.prm

>  <Rbt.Receptor>
prm/blind_docking_100.prm

>  <SCORE>
25.5728

>  <SCORE.INTER>
6.95041

>  <SCORE.INTER.CONST>
1

>  <SCORE.INTER.POLAR>
0

>  <SCORE.INTER.ROT>
13

>  <SCORE.INTER.SOLV>
27.4758

>  <SCORE.INTER.VDW>
-16.7916

>  <SCORE.INTER.norm>
0.141845

>  <SCORE.INTRA>
14.3069

>  <SCORE.INTRA.DIHEDRAL>
-11.8667

>  <SCORE.INTRA.DIHEDRAL.0>
34.5115

>  <SCORE.INTRA.POLAR>
0

>  <SCORE.INTRA.POLAR.0>
0

>  <SCORE.INTRA.REPUL>
0.526641

>  <SCORE.INTRA.REPUL.0>
0

>  <SCORE.INTRA.SOLV>
16.2637

>  <SCORE.INTRA.SOLV.lig_0>
-122.812

>  <SCORE.INTRA.VDW>
9.47525

>  <SCORE.INTRA.VDW.0>
-7.46208

>  <SCORE.INTRA.norm>
0.291978

>  <SCORE.RESTR>
4.31548

>  <SCORE.RESTR.CAVITY>
4.31548

>  <SCORE.RESTR.norm>
0.0880711

>  <SCORE.SYSTEM>
0

>  <SCORE.SYSTEM.CONST>
0

>  <SCORE.SYSTEM.DIHEDRAL>
0

>  <SCORE.SYSTEM.SOLV>
0

>  <SCORE.SYSTEM.norm>
0

>  <SCORE.heavy>
49

>  <SCORE.norm>
0.521895

>  <RMSD>
10.270

$$$$
ligand
 OpenBabel11021811513D
libRbt.so/2013.1/901 2013/11/27
 49 52  0  0  0  0  0  0  0  0999 V2000
   24.1945   13.5297   11.2704 C   0  0  2  0  0  0  0  0  0  0  0  0
   24.8123   13.0332   10.1198 O   0  0  0  0  0  0  0  0  0  0  0  0
   22.6552   13.7229   11.0052 C   0  0  2  0  0  0  0  0  0  0  0  0
   22.0457   12.3867   10.6110 N   0  0  0  0  0  0  0  0  0  0  0  0
   27.0807    7.2399   13.0876 O   0  0  0  0  0  0  0  0  0  0  0  0
   22.4272   14.7919    9.9110 C   0  0  2  0  0  0  0  0  0  0  0  0
   30.8237    3.5692   12.0514 N   0  0  0  0  0  0  0  0  0  0  0  0
   23.0685   16.1263   10.3227 C   0  0  2  0  0  0  0  0  0  0  0  0
   24.6234   15.9705   10.6010 C   0  0  2  0  0  0  0  0  0  0  0  0
   24.8026   14.8687   11.6471 O   0  0  0  0  0  0  0  0  0  0  0  0
   25.2548   17.3129   11.0709 C   0  0  0  0  0  0  0  0  0  0  0  0
   25.0218   18.3972   10.1855 N   0  0  0  0  0  0  0  0  0  0  0  0
   26.2616    9.0301   10.9432 C   0  0  2  0  0  0  0  0  0  0  0  0
   26.8455    7.6781   10.7021 N   0  0  0  0  0  0  0  0  0  0  0  0
   25.1676    9.2804    9.7955 C   0  0  0  0  0  0  0  0  0  0  0  0
   24.4800   10.6831    9.9894 C   0  0  2  0  0  0  0  0  0  0  0  0
   23.4895   10.9329    8.9318 N   0  0  0  0  0  0  0  0  0  0  0  0
   25.5347   11.8065    9.9381 C   0  0  2  0  0  0  0  0  0  0  0  0
   26.6324   11.5871   11.0561 C   0  0  2  0  0  0  0  0  0  0  0  0
   27.5829   12.7096   10.9288 O   0  0  0  0  0  0  0  0  0  0  0  0
   27.3660   10.1744   10.7963 C   0  0  1  0  0  0  0  0  0  0  0  0
   28.3324   10.0038   11.7846 O   0  0  0  0  0  0  0  0  0  0  0  0
   27.8068   13.4218    9.8774 C   0  0  1  0  0  0  0  0  0  0  0  0
   28.5048   14.7914   10.1256 C   0  0  2  0  0  0  0  0  0  0  0  0
   27.5156   15.7544   10.3097 O   0  0  0  0  0  0  0  0  0  0  0  0
   29.1698   14.9381    8.8202 C   0  0  1  0  0  0  0  0  0  0  0  0
   29.6939   13.5359    8.3813 C   0  0  2  0  0  0  0  0  0  0  0  0
   28.6149   12.7636    8.8482 O   0  0  0  0  0  0  0  0  0  0  0  0
   31.1022   13.1232    8.8118 C   0  0  0  0  0  0  0  0  0  0  0  0
   31.4570   12.0192    8.0006 O   0  0  0  0  0  0  0  0  0  0  0  0
   27.0411   14.7307    7.6164 C   0  0  2  0  0  0  0  0  0  0  0  0
   28.1421   15.4931    7.8810 O   0  0  0  0  0  0  0  0  0  0  0  0
   27.2785   13.7686    6.4899 C   0  0  1  0  0  0  0  0  0  0  0  0
   23.6081   16.8408    5.6436 N   0  0  0  0  0  0  0  0  0  0  0  0
   27.6992    5.2530   10.0806 O   0  0  0  0  0  0  0  0  0  0  0  0
   25.9541   12.9592    6.2054 C   0  0  2  0  0  0  0  0  0  0  0  0
   24.7190   13.8680    5.8776 C   0  0  1  0  0  0  0  0  0  0  0  0
   24.5049   14.7773    6.9789 C   0  0  1  0  0  0  0  0  0  0  0  0
   25.7653   15.5684    7.2733 O   0  0  0  0  0  0  0  0  0  0  0  0
   23.2846   15.7512    6.6698 C   0  0  0  0  0  0  0  0  0  0  0  0
   27.6207   14.4726    5.3179 N   0  0  0  0  0  0  0  0  0  0  0  0
   21.3036   14.9431    9.7659 O   0  0  0  0  0  0  0  0  0  0  0  0
   29.1071    5.4460   11.8527 C   0  0  0  0  0  0  0  0  0  0  0  0
   24.9583   14.4766    4.9343 O   0  0  0  0  0  0  0  0  0  0  0  0
   25.6862   12.3660    7.1538 O   0  0  0  0  0  0  0  0  0  0  0  0
   27.2220    6.8755   11.9116 C   0  0  0  0  0  0  0  0  0  0  0  0
   29.6270    4.1934   11.6143 C   0  0  0  0  0  0  0  0  0  0  0  0
   27.8253    5.4372   11.4890 C   0  0  1  0  0  0  0  0  0  0  0  0
   22.4599   16.6087   11.4950 F   0  0  0  0  0  0  0  0  0  0  0  0
  1  2  1  6  0  0  0
  1 10  1  0  0  0  0
  1  3  1  0  0  0  0
  3  4  1  6  0  0  0
  3  6  1  0  0  0  0
  5 46  2  0  0  0  0
  6 42  1  1  0  0  0
  6  8  1  0  0  0  0
  7 47  1  0  0  0  0
  8  9  1  0  0  0  0
  8 49  1  1  0  0  0
  9 10  1  0  0  0  0
  9 11  1  1  0  0  0
 11 12  1  0  0  0  0
 13 14  1  6  0  0  0
 13 15  1  0  0  0  0
 13 21  1  0  0  0  0
 14 46  1  0  0  0  0
 15 16  1  0  0  0  0
 16 17  1  6  0  0  0
 16 18  1  0  0  0  0
 18  2  1  1  0  0  0
 18 19  1  0  0  0  0
 19 20  1  6  0  0  0
 19 21  1  0  0  0  0
 21 22  1  1  0  0  0
 23 20  1  1  0  0  0
 23 24  1  0  0  0  0
 23 28  1  0  0  0  0
 24 25  1  6  0  0  0
 24 26  1  0  0  0  0
 26 27  1  0  0  0  0
 26 32  1  6  0  0  0
 27 28  1  0  0  0  0
 27 29  1  1  0  0  0
 29 30  1  0  0  0  0
 31 32  1  6  0  0  0
 31 33  1  0  0  0  0
 31 39  1  0  0  0  0
 33 36  1  0  0  0  0
 33 41  1  6  0  0  0
 34 40  1  0  0  0  0
 35 48  1  0  0  0  0
 36 37  1  0  0  0  0
 36 45  1  1  0  0  0
 37 38  1  0  0  0  0
 37 44  1  6  0  0  0
 38 39  1  0  0  0  0
 38 40  1  6  0  0  0
 43 47  1  0  0  0  0
 46 48  1  0  0  0  0
 48 43  1  6  0  0  0
M  END
>  <CHROM.1>
-119.81137703,70.92905930,-54.61069884,-145.04320842,-23.83998995,161.55859756
-63.34471473,-164.28718540,-86.40793581,-74.01149005,-165.26387190,-65.72429779
172.55114583,26.24408114,12.46576164,9.52089617,1.99699497,0.41716380,-0.46882898

>  <Name>
ligand

>  <RI>
0

>  <Rbt.Current_Directory>
/home/itssahil/PROJECTS/Mol_Feturizer/New_Systems/rnas/4PDQ

>  <Rbt.Executable>
rbdock ($Id: //depot/dev/client3/rdock/2013.1/src/exe/rbdock.cxx#4 $)

>  <Rbt.Library>
libRbt.so (2013.1, Build901 2013/11/27)

>  <Rbt.Parameter_File>
/export/apps/rDock/src/rDock_2013.1_src/data/scripts/dock_solv.prm

>  <Rbt.Receptor>
prm/blind_docking_100.prm

>  <SCORE>
1.99993

>  <SCORE.INTER>
-2.06183

>  <SCORE.INTER.CONST>
1

>  <SCORE.INTER.POLAR>
0

>  <SCORE.INTER.ROT>
13

>  <SCORE.INTER.SOLV>
32.0853

>  <SCORE.INTER.VDW>
-24.3363

>  <SCORE.INTER.norm>
-0.0420782

>  <SCORE.INTRA>
0.859552

>  <SCORE.INTRA.DIHEDRAL>
-11.7463

>  <SCORE.INTRA.DIHEDRAL.0>
34.5115

>  <SCORE.INTRA.POLAR>
0

>  <SCORE.INTRA.POLAR.0>
0

>  <SCORE.INTRA.REPUL>
0.122486

>  <SCORE.INTRA.REPUL.0>
0

>  <SCORE.INTRA.SOLV>
6.31739

>  <SCORE.INTRA.SOLV.lig_0>
-122.812

>  <SCORE.INTRA.VDW>
2.9616

>  <SCORE.INTRA.VDW.0>
-7.46208

>  <SCORE.INTRA.norm>
0.0175419

>  <SCORE.RESTR>
3.20222

>  <SCORE.RESTR.CAVITY>
3.20222

>  <SCORE.RESTR.norm>
0.0653513

>  <SCORE.SYSTEM>
0

>  <SCORE.SYSTEM.CONST>
0

>  <SCORE.SYSTEM.DIHEDRAL>
0

>  <SCORE.SYSTEM.SOLV>
0

>  <SCORE.SYSTEM.norm>
0

>  <SCORE.heavy>
49

>  <SCORE.norm>
0.040815

>  <RMSD>
10.273

$$$$
ligand
 OpenBabel11021811513D
libRbt.so/2013.1/901 2013/11/27
 49 52  0  0  0  0  0  0  0  0999 V2000
   25.5048   13.3323    7.4751 C   0  0  2  0  0  0  0  0  0  0  0  0
   25.9125   12.0372    7.8045 O   0  0  0  0  0  0  0  0  0  0  0  0
   25.3611   13.4626    5.9132 C   0  0  2  0  0  0  0  0  0  0  0  0
   24.3442   12.4453    5.4197 N   0  0  0  0  0  0  0  0  0  0  0  0
   27.0435   10.5659   13.2955 O   0  0  0  0  0  0  0  0  0  0  0  0
   26.7335   13.2667    5.2277 C   0  0  2  0  0  0  0  0  0  0  0  0
   29.8905   11.1584   16.1776 N   0  0  0  0  0  0  0  0  0  0  0  0
   27.7486   14.2921    5.7566 C   0  0  2  0  0  0  0  0  0  0  0  0
   27.9193   14.1922    7.3316 C   0  0  2  0  0  0  0  0  0  0  0  0
   26.5330   14.3377    7.9619 O   0  0  0  0  0  0  0  0  0  0  0  0
   28.9063   15.2698    7.8666 C   0  0  0  0  0  0  0  0  0  0  0  0
   30.2734   14.9181    7.7209 N   0  0  0  0  0  0  0  0  0  0  0  0
   26.8466    9.0577   10.8133 C   0  0  2  0  0  0  0  0  0  0  0  0
   27.3493    8.4705   12.0898 N   0  0  0  0  0  0  0  0  0  0  0  0
   27.9817   10.0583   10.2778 C   0  0  0  0  0  0  0  0  0  0  0  0
   27.5415   10.7076    8.9130 C   0  0  2  0  0  0  0  0  0  0  0  0
   28.5648   11.6423    8.4220 N   0  0  0  0  0  0  0  0  0  0  0  0
   26.2230   11.4862    9.0928 C   0  0  2  0  0  0  0  0  0  0  0  0
   25.0819   10.5281    9.6247 C   0  0  2  0  0  0  0  0  0  0  0  0
   23.8697   11.3605    9.7550 O   0  0  0  0  0  0  0  0  0  0  0  0
   25.5292    9.9279   11.0534 C   0  0  1  0  0  0  0  0  0  0  0  0
   24.5098    9.0947   11.5077 O   0  0  0  0  0  0  0  0  0  0  0  0
   23.8200   12.6334    9.9551 C   0  0  1  0  0  0  0  0  0  0  0  0
   22.6673   13.1275   10.8780 C   0  0  2  0  0  0  0  0  0  0  0  0
   21.5674   13.4233   10.0762 O   0  0  0  0  0  0  0  0  0  0  0  0
   23.3078   14.3487   11.3939 C   0  0  1  0  0  0  0  0  0  0  0  0
   24.8164   14.0388   11.6417 C   0  0  2  0  0  0  0  0  0  0  0  0
   25.0383   13.2158   10.5228 O   0  0  0  0  0  0  0  0  0  0  0  0
   25.2282   13.5007   13.0127 C   0  0  0  0  0  0  0  0  0  0  0  0
   26.6341   13.3439   12.9710 O   0  0  0  0  0  0  0  0  0  0  0  0
   24.0906   16.3254   10.1677 C   0  0  2  0  0  0  0  0  0  0  0  0
   23.0964   15.4091   10.3560 O   0  0  0  0  0  0  0  0  0  0  0  0
   23.7814   17.6369   10.8276 C   0  0  1  0  0  0  0  0  0  0  0  0
   24.4695   17.6231    5.9875 N   0  0  0  0  0  0  0  0  0  0  0  0
   28.0424    7.2004   14.3095 O   0  0  0  0  0  0  0  0  0  0  0  0
   24.9442   18.6606   10.5273 C   0  0  2  0  0  0  0  0  0  0  0  0
   25.2072   18.8834    8.9976 C   0  0  1  0  0  0  0  0  0  0  0  0
   25.5117   17.6105    8.3873 C   0  0  1  0  0  0  0  0  0  0  0  0
   24.4078   16.6070    8.6620 O   0  0  0  0  0  0  0  0  0  0  0  0
   25.7434   17.7828    6.8222 C   0  0  0  0  0  0  0  0  0  0  0  0
   22.5851   18.1693   10.3064 N   0  0  0  0  0  0  0  0  0  0  0  0
   26.6103   13.4062    4.1000 O   0  0  0  0  0  0  0  0  0  0  0  0
   29.1472    9.1099   14.8510 C   0  0  0  0  0  0  0  0  0  0  0  0
   24.2498   19.3033    8.5237 O   0  0  0  0  0  0  0  0  0  0  0  0
   25.9172   18.2380   10.9723 O   0  0  0  0  0  0  0  0  0  0  0  0
   27.3948    9.3776   13.2831 C   0  0  0  0  0  0  0  0  0  0  0  0
   28.9655   10.2644   15.5792 C   0  0  0  0  0  0  0  0  0  0  0  0
   27.9468    8.5962   14.5854 C   0  0  1  0  0  0  0  0  0  0  0  0
   27.3206   15.5947    5.4443 F   0  0  0  0  0  0  0  0  0  0  0  0
  1  2  1  6  0  0  0
  1 10  1  0  0  0  0
  1  3  1  0  0  0  0
  3  4  1  6  0  0  0
  3  6  1  0  0  0  0
  5 46  2  0  0  0  0
  6 42  1  6  0  0  0
  6  8  1  0  0  0  0
  7 47  1  0  0  0  0
  8  9  1  0  0  0  0
  8 49  1  1  0  0  0
  9 10  1  0  0  0  0
  9 11  1  1  0  0  0
 11 12  1  0  0  0  0
 13 14  1  1  0  0  0
 13 15  1  0  0  0  0
 13 21  1  0  0  0  0
 14 46  1  0  0  0  0
 15 16  1  0  0  0  0
 16 17  1  1  0  0  0
 16 18  1  0  0  0  0
 18  2  1  6  0  0  0
 18 19  1  0  0  0  0
 19 20  1  1  0  0  0
 19 21  1  0  0  0  0
 21 22  1  6  0  0  0
 23 20  1  1  0  0  0
 23 24  1  0  0  0  0
 23 28  1  0  0  0  0
 24 25  1  6  0  0  0
 24 26  1  0  0  0  0
 26 27  1  0  0  0  0
 26 32  1  6  0  0  0
 27 28  1  0  0  0  0
 27 29  1  1  0  0  0
 29 30  1  0  0  0  0
 31 32  1  6  0  0  0
 31 33  1  0  0  0  0
 31 39  1  0  0  0  0
 33 36  1  0  0  0  0
 33 41  1  6  0  0  0
 34 40  1  0  0  0  0
 35 48  1  0  0  0  0
 36 37  1  0  0  0  0
 36 45  1  1  0  0  0
 37 38  1  0  0  0  0
 37 44  1  6  0  0  0
 38 39  1  0  0  0  0
 38 40  1  6  0  0  0
 43 47  1  0  0  0  0
 46 48  1  0  0  0  0
 48 43  1  6  0  0  0
M  END
>  <CHROM.1>
177.05257823,-133.87138836,-81.19046772,71.85089577,-26.37744717,-143.45388045
-144.82356041,-178.53167610,-101.77339153,-90.34931477,176.18106238,-157.61030349
169.86248414,25.95233918,13.38983100,9.82905049,-2.13316433,-1.08230979,1.97910610

>  <Name>
ligand

>  <RI>
0

>  <Rbt.Current_Directory>
/home/itssahil/PROJECTS/Mol_Feturizer/New_Systems/rnas/4PDQ

>  <Rbt.Executable>
rbdock ($Id: //depot/dev/client3/rdock/2013.1/src/exe/rbdock.cxx#4 $)

>  <Rbt.Library>
libRbt.so (2013.1, Build901 2013/11/27)

>  <Rbt.Parameter_File>
/export/apps/rDock/src/rDock_2013.1_src/data/scripts/dock_solv.prm

>  <Rbt.Receptor>
prm/blind_docking_80.prm

>  <SCORE>
13.1014

>  <SCORE.INTER>
4.66035

>  <SCORE.INTER.CONST>
1

>  <SCORE.INTER.POLAR>
0

>  <SCORE.INTER.ROT>
13

>  <SCORE.INTER.SOLV>
27.1368

>  <SCORE.INTER.VDW>
-18.2054

>  <SCORE.INTER.norm>
0.0951092

>  <SCORE.INTRA>
3.9055

>  <SCORE.INTRA.DIHEDRAL>
-0.610603

>  <SCORE.INTRA.DIHEDRAL.0>
34.5115

>  <SCORE.INTRA.POLAR>
0

>  <SCORE.INTRA.POLAR.0>
0

>  <SCORE.INTRA.REPUL>
0

>  <SCORE.INTRA.REPUL.0>
0

>  <SCORE.INTRA.SOLV>
2.85472

>  <SCORE.INTRA.SOLV.lig_0>
-122.812

>  <SCORE.INTRA.VDW>
2.78344

>  <SCORE.INTRA.VDW.0>
-7.46208

>  <SCORE.INTRA.norm>
0.079704

>  <SCORE.RESTR>
4.5356

>  <SCORE.RESTR.CAVITY>
4.5356

>  <SCORE.RESTR.norm>
0.0925632

>  <SCORE.SYSTEM>
0

>  <SCORE.SYSTEM.CONST>
0

>  <SCORE.SYSTEM.DIHEDRAL>
0

>  <SCORE.SYSTEM.SOLV>
0

>  <SCORE.SYSTEM.norm>
0

>  <SCORE.heavy>
49

>  <SCORE.norm>
0.267376

>  <RMSD>
10.276

$$$$
ligand
 OpenBabel11021811513D
libRbt.so/2013.1/901 2013/11/27
 49 52  0  0  0  0  0  0  0  0999 V2000
   25.8980   12.4529    6.8435 C   0  0  2  0  0  0  0  0  0  0  0  0
   26.1060   12.2285    8.2067 O   0  0  0  0  0  0  0  0  0  0  0  0
   26.9405   13.5063    6.3137 C   0  0  2  0  0  0  0  0  0  0  0  0
   28.3469   12.9810    6.5558 N   0  0  0  0  0  0  0  0  0  0  0  0
   24.0035    7.7773   11.2654 O   0  0  0  0  0  0  0  0  0  0  0  0
   26.7225   14.8736    7.0029 C   0  0  2  0  0  0  0  0  0  0  0  0
   21.7342    4.1758   12.7134 N   0  0  0  0  0  0  0  0  0  0  0  0
   25.2897   15.3739    6.7610 C   0  0  2  0  0  0  0  0  0  0  0  0
   24.2083   14.3350    7.2815 C   0  0  2  0  0  0  0  0  0  0  0  0
   24.4958   12.9882    6.6155 O   0  0  0  0  0  0  0  0  0  0  0  0
   22.7609   14.8227    6.9832 C   0  0  0  0  0  0  0  0  0  0  0  0
   22.4578   16.0928    7.5390 N   0  0  0  0  0  0  0  0  0  0  0  0
   26.6882    8.5792   10.4754 C   0  0  2  0  0  0  0  0  0  0  0  0
   26.4152    7.4771   11.4437 N   0  0  0  0  0  0  0  0  0  0  0  0
   26.3441    9.9572   11.2232 C   0  0  0  0  0  0  0  0  0  0  0  0
   26.6288   11.1817   10.2758 C   0  0  2  0  0  0  0  0  0  0  0  0
   26.2982   12.4496   10.9428 N   0  0  0  0  0  0  0  0  0  0  0  0
   25.7784   11.0743    8.9943 C   0  0  2  0  0  0  0  0  0  0  0  0
   26.0908    9.7226    8.2338 C   0  0  2  0  0  0  0  0  0  0  0  0
   25.2390    9.7197    7.0281 O   0  0  0  0  0  0  0  0  0  0  0  0
   25.7291    8.4843    9.2019 C   0  0  1  0  0  0  0  0  0  0  0  0
   26.0031    7.3056    8.5125 O   0  0  0  0  0  0  0  0  0  0  0  0
   25.2553    8.8587    6.0682 C   0  0  1  0  0  0  0  0  0  0  0  0
   24.1486    9.0322    4.9866 C   0  0  2  0  0  0  0  0  0  0  0  0
   23.0467    8.2708    5.3686 O   0  0  0  0  0  0  0  0  0  0  0  0
   24.8588    8.4270    3.8476 C   0  0  1  0  0  0  0  0  0  0  0  0
   26.3559    8.8588    3.9232 C   0  0  2  0  0  0  0  0  0  0  0  0
   26.5126    8.7946    5.3195 O   0  0  0  0  0  0  0  0  0  0  0  0
   26.7718   10.1516    3.2198 C   0  0  0  0  0  0  0  0  0  0  0  0
   26.4746    9.9697    1.8482 O   0  0  0  0  0  0  0  0  0  0  0  0
   25.4040    6.1392    3.1460 C   0  0  2  0  0  0  0  0  0  0  0  0
   24.6757    6.9447    3.9731 O   0  0  0  0  0  0  0  0  0  0  0  0
   24.8812    4.7330    3.1240 C   0  0  1  0  0  0  0  0  0  0  0  0
   29.9427    6.6527    2.9769 N   0  0  0  0  0  0  0  0  0  0  0  0
   25.6667    6.2115   13.9411 O   0  0  0  0  0  0  0  0  0  0  0  0
   25.7973    3.8488    2.1918 C   0  0  2  0  0  0  0  0  0  0  0  0
   27.3081    3.8482    2.6115 C   0  0  1  0  0  0  0  0  0  0  0  0
   27.7905    5.2094    2.6158 C   0  0  1  0  0  0  0  0  0  0  0  0
   26.9254    6.0815    3.5058 O   0  0  0  0  0  0  0  0  0  0  0  0
   29.3121    5.2610    3.0798 C   0  0  0  0  0  0  0  0  0  0  0  0
   24.9185    4.1838    4.4214 N   0  0  0  0  0  0  0  0  0  0  0  0
   27.4631   15.6303    6.5727 O   0  0  0  0  0  0  0  0  0  0  0  0
   23.5602    5.9033   13.1490 C   0  0  0  0  0  0  0  0  0  0  0  0
   27.3878    3.4222    3.6744 O   0  0  0  0  0  0  0  0  0  0  0  0
   25.7496    4.2824    1.1274 O   0  0  0  0  0  0  0  0  0  0  0  0
   24.9770    7.1852   11.7526 C   0  0  0  0  0  0  0  0  0  0  0  0
   23.0418    4.7238   12.6631 C   0  0  0  0  0  0  0  0  0  0  0  0
   24.8452    5.9635   12.8022 C   0  0  1  0  0  0  0  0  0  0  0  0
   25.0781   15.5740    5.3853 F   0  0  0  0  0  0  0  0  0  0  0  0
  1  2  1  1  0  0  0
  1 10  1  0  0  0  0
  1  3  1  0  0  0  0
  3  4  1  1  0  0  0
  3  6  1  0  0  0  0
  5 46  2  0  0  0  0
  6 42  1  6  0  0  0
  6  8  1  0  0  0  0
  7 47  1  0  0  0  0
  8  9  1  0  0  0  0
  8 49  1  6  0  0  0
  9 10  1  0  0  0  0
  9 11  1  6  0  0  0
 11 12  1  0  0  0  0
 13 14  1  1  0  0  0
 13 15  1  0  0  0  0
 13 21  1  0  0  0  0
 14 46  1  0  0  0  0
 15 16  1  0  0  0  0
 16 17  1  1  0  0  0
 16 18  1  0  0  0  0
 18  2  1  6  0  0  0
 18 19  1  0  0  0  0
 19 20  1  6  0  0  0
 19 21  1  0  0  0  0
 21 22  1  6  0  0  0
 23 20  1  1  0  0  0
 23 24  1  0  0  0  0
 23 28  1  0  0  0  0
 24 25  1  1  0  0  0
 24 26  1  0  0  0  0
 26 27  1  0  0  0  0
 26 32  1  1  0  0  0
 27 28  1  0  0  0  0
 27 29  1  1  0  0  0
 29 30  1  0  0  0  0
 31 32  1  1  0  0  0
 31 33  1  0  0  0  0
 31 39  1  0  0  0  0
 33 36  1  0  0  0  0
 33 41  1  1  0  0  0
 34 40  1  0  0  0  0
 35 48  1  0  0  0  0
 36 37  1  0  0  0  0
 36 45  1  6  0  0  0
 37 38  1  0  0  0  0
 37 44  1  1  0  0  0
 38 39  1  0  0  0  0
 38 40  1  1  0  0  0
 43 47  1  0  0  0  0
 46 48  1  0  0  0  0
 48 43  1  1  0  0  0
M  END
>  <CHROM.1>
-154.86960720,161.80833009,-57.33150801,71.75659947,173.76884051,174.42690207
-170.56068951,-60.51273931,-165.33622820,174.17074394,-178.20357727,-127.21548194
-129.21672754,25.67418307,9.04202609,6.85613332,-2.18308648,-1.36004195,3.10903424

>  <Name>
ligand

>  <RI>
0

>  <Rbt.Current_Directory>
/home/itssahil/PROJECTS/Mol_Feturizer/New_Systems/rnas/4PDQ

>  <Rbt.Executable>
rbdock ($Id: //depot/dev/client3/rdock/2013.1/src/exe/rbdock.cxx#4 $)

>  <Rbt.Library>
libRbt.so (2013.1, Build901 2013/11/27)

>  <Rbt.Parameter_File>
/export/apps/rDock/src/rDock_2013.1_src/data/scripts/dock_solv.prm

>  <Rbt.Receptor>
prm/pocket_docking_7.prm

>  <SCORE>
-8.31851

>  <SCORE.INTER>
1.93489

>  <SCORE.INTER.CONST>
1

>  <SCORE.INTER.POLAR>
0

>  <SCORE.INTER.ROT>
13

>  <SCORE.INTER.SOLV>
14.9801

>  <SCORE.INTER.VDW>
-15.9701

>  <SCORE.INTER.norm>
0.0394875

>  <SCORE.INTRA>
-10.281

>  <SCORE.INTRA.DIHEDRAL>
-22.3214

>  <SCORE.INTRA.DIHEDRAL.0>
34.5115

>  <SCORE.INTRA.POLAR>
0

>  <SCORE.INTRA.POLAR.0>
0

>  <SCORE.INTRA.REPUL>
0

>  <SCORE.INTRA.REPUL.0>
0

>  <SCORE.INTRA.SOLV>
-4.43772

>  <SCORE.INTRA.SOLV.lig_0>
-122.812

>  <SCORE.INTRA.VDW>
3.09858

>  <SCORE.INTRA.VDW.0>
-7.46208

>  <SCORE.INTRA.norm>
-0.209816

>  <SCORE.RESTR>
0.0275849

>  <SCORE.RESTR.CAVITY>
0.0275849

>  <SCORE.RESTR.norm>
0.000562958

>  <SCORE.SYSTEM>
0

>  <SCORE.SYSTEM.CONST>
0

>  <SCORE.SYSTEM.DIHEDRAL>
0

>  <SCORE.SYSTEM.SOLV>
0

>  <SCORE.SYSTEM.norm>
0

>  <SCORE.heavy>
49

>  <SCORE.norm>
-0.169766

>  <RMSD>
10.288

$$$$
ligand
 OpenBabel11021811513D
libRbt.so/2013.1/901 2013/11/27
 49 52  0  0  0  0  0  0  0  0999 V2000
   24.4958   19.4758    9.6008 C   0  0  2  0  0  0  0  0  0  0  0  0
   25.2756   19.1843    8.4788 O   0  0  0  0  0  0  0  0  0  0  0  0
   23.2944   20.4040    9.1856 C   0  0  2  0  0  0  0  0  0  0  0  0
   22.4598   19.6966    8.1295 N   0  0  0  0  0  0  0  0  0  0  0  0
   27.6479   14.5669    6.0371 O   0  0  0  0  0  0  0  0  0  0  0  0
   23.8180   21.7657    8.6723 C   0  0  2  0  0  0  0  0  0  0  0  0
   24.4893   12.6349    5.5981 N   0  0  0  0  0  0  0  0  0  0  0  0
   24.6740   22.4516    9.7486 C   0  0  2  0  0  0  0  0  0  0  0  0
   25.8968   21.5432   10.1948 C   0  0  2  0  0  0  0  0  0  0  0  0
   25.3360   20.1922   10.6427 O   0  0  0  0  0  0  0  0  0  0  0  0
   26.7265   22.2202   11.3239 C   0  0  0  0  0  0  0  0  0  0  0  0
   27.3803   23.4128   10.9186 N   0  0  0  0  0  0  0  0  0  0  0  0
   25.2401   16.0905    5.4407 C   0  0  2  0  0  0  0  0  0  0  0  0
   25.6368   14.8615    4.6929 N   0  0  0  0  0  0  0  0  0  0  0  0
   26.5885   16.8989    5.7643 C   0  0  0  0  0  0  0  0  0  0  0  0
   26.2581   18.2309    6.5356 C   0  0  2  0  0  0  0  0  0  0  0  0
   27.4875   18.9709    6.8558 N   0  0  0  0  0  0  0  0  0  0  0  0
   25.5264   17.9160    7.8557 C   0  0  2  0  0  0  0  0  0  0  0  0
   24.1924   17.1143    7.5721 C   0  0  2  0  0  0  0  0  0  0  0  0
   23.5683   16.8706    8.8876 O   0  0  0  0  0  0  0  0  0  0  0  0
   24.5642   15.7256    6.8409 C   0  0  1  0  0  0  0  0  0  0  0  0
   23.3792   15.0321    6.6073 O   0  0  0  0  0  0  0  0  0  0  0  0
   23.9781   16.0602    9.8031 C   0  0  1  0  0  0  0  0  0  0  0  0
   23.7697   14.5458    9.5070 C   0  0  2  0  0  0  0  0  0  0  0  0
   22.5323   14.1699   10.0241 O   0  0  0  0  0  0  0  0  0  0  0  0
   24.8803   14.0104   10.3118 C   0  0  1  0  0  0  0  0  0  0  0  0
   26.0996   14.9711   10.1576 C   0  0  2  0  0  0  0  0  0  0  0  0
   25.3955   16.1887   10.1499 O   0  0  0  0  0  0  0  0  0  0  0  0
   27.0844   14.7122    9.0165 C   0  0  0  0  0  0  0  0  0  0  0  0
   26.4106   13.8775    8.0935 O   0  0  0  0  0  0  0  0  0  0  0  0
   24.9444   12.9981   12.5467 C   0  0  2  0  0  0  0  0  0  0  0  0
   24.3808   13.9290   11.7225 O   0  0  0  0  0  0  0  0  0  0  0  0
   26.0953   13.5598   13.3284 C   0  0  1  0  0  0  0  0  0  0  0  0
   25.3867    8.7888   10.9507 N   0  0  0  0  0  0  0  0  0  0  0  0
   28.5806   12.7987    3.8986 O   0  0  0  0  0  0  0  0  0  0  0  0
   26.7290   12.4208   14.2179 C   0  0  2  0  0  0  0  0  0  0  0  0
   27.2025   11.1713   13.3974 C   0  0  1  0  0  0  0  0  0  0  0  0
   26.0770   10.6434   12.6623 C   0  0  1  0  0  0  0  0  0  0  0  0
   25.4488   11.7203   11.7983 O   0  0  0  0  0  0  0  0  0  0  0  0
   26.5224    9.3969   11.7785 C   0  0  0  0  0  0  0  0  0  0  0  0
   27.0906   14.0328   12.4498 N   0  0  0  0  0  0  0  0  0  0  0  0
   22.9277   22.4351    8.4163 O   0  0  0  0  0  0  0  0  0  0  0  0
   26.8264   11.8293    4.9678 C   0  0  0  0  0  0  0  0  0  0  0  0
   28.0064   11.5117   12.6522 O   0  0  0  0  0  0  0  0  0  0  0  0
   25.9242   12.0496   14.9513 O   0  0  0  0  0  0  0  0  0  0  0  0
   26.9089   14.1897    5.1166 C   0  0  0  0  0  0  0  0  0  0  0  0
   25.4503   11.7861    4.9908 C   0  0  0  0  0  0  0  0  0  0  0  0
   27.1944   12.8725    4.2251 C   0  0  1  0  0  0  0  0  0  0  0  0
   23.8902   22.7200   10.8848 F   0  0  0  0  0  0  0  0  0  0  0  0
  1  2  1  6  0  0  0
  1 10  1  0  0  0  0
  1  3  1  0  0  0  0
  3  4  1  6  0  0  0
  3  6  1  0  0  0  0
  5 46  2  0  0  0  0
  6 42  1  1  0  0  0
  6  8  1  0  0  0  0
  7 47  1  0  0  0  0
  8  9  1  0  0  0  0
  8 49  1  1  0  0  0
  9 10  1  0  0  0  0
  9 11  1  1  0  0  0
 11 12  1  0  0  0  0
 13 14  1  1  0  0  0
 13 15  1  0  0  0  0
 13 21  1  0  0  0  0
 14 46  1  0  0  0  0
 15 16  1  0  0  0  0
 16 17  1  1  0  0  0
 16 18  1  0  0  0  0
 18  2  1  6  0  0  0
 18 19  1  0  0  0  0
 19 20  1  1  0  0  0
 19 21  1  0  0  0  0
 21 22  1  6  0  0  0
 23 20  1  6  0  0  0
 23 24  1  0  0  0  0
 23 28  1  0  0  0  0
 24 25  1  1  0  0  0
 24 26  1  0  0  0  0
 26 27  1  0  0  0  0
 26 32  1  1  0  0  0
 27 28  1  0  0  0  0
 27 29  1  6  0  0  0
 29 30  1  0  0  0  0
 31 32  1  6  0  0  0
 31 33  1  0  0  0  0
 31 39  1  0  0  0  0
 33 36  1  0  0  0  0
 33 41  1  6  0  0  0
 34 40  1  0  0  0  0
 35 48  1  0  0  0  0
 36 37  1  0  0  0  0
 36 45  1  1  0  0  0
 37 38  1  0  0  0  0
 37 44  1  6  0  0  0
 38 39  1  0  0  0  0
 38 40  1  6  0  0  0
 43 47  1  0  0  0  0
 46 48  1  0  0  0  0
 48 43  1  1  0  0  0
M  END
>  <CHROM.1>
-116.61783805,170.89193589,-65.42301398,37.50547848,-71.31011021,-72.74721476
153.26601190,18.27885273,92.69616850,-179.21836524,-69.47051804,-166.33069185
-42.05949988,25.48903341,15.83255845,9.15846058,2.72695140,1.40963695,-1.28359926

>  <Name>
ligand

>  <RI>
0

>  <Rbt.Current_Directory>
/home/itssahil/PROJECTS/Mol_Feturizer/New_Systems/rnas/4PDQ

>  <Rbt.Executable>
rbdock ($Id: //depot/dev/client3/rdock/2013.1/src/exe/rbdock.cxx#4 $)

>  <Rbt.Library>
libRbt.so (2013.1, Build901 2013/11/27)

>  <Rbt.Parameter_File>
/export/apps/rDock/src/rDock_2013.1_src/data/scripts/dock_solv.prm

>  <Rbt.Receptor>
prm/blind_docking_40.prm

>  <SCORE>
7.47

>  <SCORE.INTER>
-0.344856

>  <SCORE.INTER.CONST>
1

>  <SCORE.INTER.POLAR>
0

>  <SCORE.INTER.ROT>
13

>  <SCORE.INTER.SOLV>
32.0473

>  <SCORE.INTER.VDW>
-23.179

>  <SCORE.INTER.norm>
-0.00703787

>  <SCORE.INTRA>
4.17495

>  <SCORE.INTRA.DIHEDRAL>
-10.7437

>  <SCORE.INTRA.DIHEDRAL.0>
34.5115

>  <SCORE.INTRA.POLAR>
0

>  <SCORE.INTRA.POLAR.0>
0

>  <SCORE.INTRA.REPUL>
0

>  <SCORE.INTRA.REPUL.0>
0

>  <SCORE.INTRA.SOLV>
9.00962

>  <SCORE.INTRA.SOLV.lig_0>
-122.812

>  <SCORE.INTRA.VDW>
5.04196

>  <SCORE.INTRA.VDW.0>
-7.46208

>  <SCORE.INTRA.norm>
0.085203

>  <SCORE.RESTR>
3.63991

>  <SCORE.RESTR.CAVITY>
3.63991

>  <SCORE.RESTR.norm>
0.074284

>  <SCORE.SYSTEM>
0

>  <SCORE.SYSTEM.CONST>
0

>  <SCORE.SYSTEM.DIHEDRAL>
0

>  <SCORE.SYSTEM.SOLV>
0

>  <SCORE.SYSTEM.norm>
0

>  <SCORE.heavy>
49

>  <SCORE.norm>
0.152449

>  <RMSD>
10.290

$$$$
ligand
 OpenBabel11021811513D
libRbt.so/2013.1/901 2013/11/27
 49 52  0  0  0  0  0  0  0  0999 V2000
   29.1256    6.5155    2.3081 C   0  0  2  0  0  0  0  0  0  0  0  0
   29.6793    7.7971    2.3619 O   0  0  0  0  0  0  0  0  0  0  0  0
   30.0076    5.5203    3.1500 C   0  0  2  0  0  0  0  0  0  0  0  0
   30.0749    6.0086    4.5885 N   0  0  0  0  0  0  0  0  0  0  0  0
   28.0949   13.5340    5.6250 O   0  0  0  0  0  0  0  0  0  0  0  0
   31.4190    5.3949    2.5300 C   0  0  2  0  0  0  0  0  0  0  0  0
   27.5000   14.6750   10.8590 N   0  0  0  0  0  0  0  0  0  0  0  0
   31.3241    4.9196    1.0717 C   0  0  2  0  0  0  0  0  0  0  0  0
   30.4389    5.8991    0.1904 C   0  0  2  0  0  0  0  0  0  0  0  0
   29.0746    6.0340    0.8692 O   0  0  0  0  0  0  0  0  0  0  0  0
   30.3015    5.3822   -1.2710 C   0  0  0  0  0  0  0  0  0  0  0  0
   31.5421    5.2178   -1.9401 N   0  0  0  0  0  0  0  0  0  0  0  0
   29.7817   11.2498    4.9831 C   0  0  2  0  0  0  0  0  0  0  0  0
   29.9313   12.0519    6.2326 N   0  0  0  0  0  0  0  0  0  0  0  0
   28.8754    9.9764    5.3484 C   0  0  0  0  0  0  0  0  0  0  0  0
   28.6453    9.0827    4.0731 C   0  0  2  0  0  0  0  0  0  0  0  0
   27.8327    7.9015    4.3994 N   0  0  0  0  0  0  0  0  0  0  0  0
   29.9962    8.5986    3.5094 C   0  0  2  0  0  0  0  0  0  0  0  0
   30.9171    9.8316    3.1424 C   0  0  2  0  0  0  0  0  0  0  0  0
   32.1723    9.2665    2.6091 O   0  0  0  0  0  0  0  0  0  0  0  0
   31.1909   10.6935    4.4779 C   0  0  1  0  0  0  0  0  0  0  0  0
   32.0084   11.7680    4.1359 O   0  0  0  0  0  0  0  0  0  0  0  0
   33.1426    9.9133    2.0585 C   0  0  1  0  0  0  0  0  0  0  0  0
   33.8209    9.2100    0.8462 C   0  0  2  0  0  0  0  0  0  0  0  0
   34.8819    8.4464    1.3268 O   0  0  0  0  0  0  0  0  0  0  0  0
   34.2932   10.4088    0.1336 C   0  0  1  0  0  0  0  0  0  0  0  0
   33.1941   11.5094    0.2523 C   0  0  2  0  0  0  0  0  0  0  0  0
   32.7951   11.2521    1.5764 O   0  0  0  0  0  0  0  0  0  0  0  0
   32.1054   11.5625   -0.8205 C   0  0  0  0  0  0  0  0  0  0  0  0
   31.4569   10.3051   -0.7897 O   0  0  0  0  0  0  0  0  0  0  0  0
   36.2289   11.9085    0.2995 C   0  0  2  0  0  0  0  0  0  0  0  0
   35.5844   10.8063    0.7825 O   0  0  0  0  0  0  0  0  0  0  0  0
   36.2971   11.9106   -1.1994 C   0  0  1  0  0  0  0  0  0  0  0  0
   40.7966   12.1633    0.6262 N   0  0  0  0  0  0  0  0  0  0  0  0
   29.5912   15.3281    7.5721 O   0  0  0  0  0  0  0  0  0  0  0  0
   37.0966   13.1815   -1.6850 C   0  0  2  0  0  0  0  0  0  0  0  0
   38.5424   13.2822   -1.0864 C   0  0  1  0  0  0  0  0  0  0  0  0
   38.4501   13.2884    0.3548 C   0  0  1  0  0  0  0  0  0  0  0  0
   37.6845   12.0752    0.8478 O   0  0  0  0  0  0  0  0  0  0  0  0
   39.9008   13.3455    1.0069 C   0  0  0  0  0  0  0  0  0  0  0  0
   36.9806   10.7646   -1.6530 N   0  0  0  0  0  0  0  0  0  0  0  0
   32.0255    4.6376    3.1341 O   0  0  0  0  0  0  0  0  0  0  0  0
   28.1431   13.8620    8.5280 C   0  0  0  0  0  0  0  0  0  0  0  0
   39.1357   12.3569   -1.4169 O   0  0  0  0  0  0  0  0  0  0  0  0
   36.5274   14.1179   -1.3350 O   0  0  0  0  0  0  0  0  0  0  0  0
   28.9879   13.2027    6.4179 C   0  0  0  0  0  0  0  0  0  0  0  0
   28.3325   14.5245    9.7201 C   0  0  0  0  0  0  0  0  0  0  0  0
   29.2658   13.9615    7.8174 C   0  0  1  0  0  0  0  0  0  0  0  0
   30.7432    3.6400    1.0218 F   0  0  0  0  0  0  0  0  0  0  0  0
  1  2  1  6  0  0  0
  1 10  1  0  0  0  0
  1  3  1  0  0  0  0
  3  4  1  1  0  0  0
  3  6  1  0  0  0  0
  5 46  2  0  0  0  0
  6 42  1  1  0  0  0
  6  8  1  0  0  0  0
  7 47  1  0  0  0  0
  8  9  1  0  0  0  0
  8 49  1  1  0  0  0
  9 10  1  0  0  0  0
  9 11  1  6  0  0  0
 11 12  1  0  0  0  0
 13 14  1  1  0  0  0
 13 15  1  0  0  0  0
 13 21  1  0  0  0  0
 14 46  1  0  0  0  0
 15 16  1  0  0  0  0
 16 17  1  1  0  0  0
 16 18  1  0  0  0  0
 18  2  1  6  0  0  0
 18 19  1  0  0  0  0
 19 20  1  1  0  0  0
 19 21  1  0  0  0  0
 21 22  1  6  0  0  0
 23 20  1  6  0  0  0
 23 24  1  0  0  0  0
 23 28  1  0  0  0  0
 24 25  1  1  0  0  0
 24 26  1  0  0  0  0
 26 27  1  0  0  0  0
 26 32  1  1  0  0  0
 27 28  1  0  0  0  0
 27 29  1  6  0  0  0
 29 30  1  0  0  0  0
 31 32  1  1  0  0  0
 31 33  1  0  0  0  0
 31 39  1  0  0  0  0
 33 36  1  0  0  0  0
 33 41  1  1  0  0  0
 34 40  1  0  0  0  0
 35 48  1  0  0  0  0
 36 37  1  0  0  0  0
 36 45  1  1  0  0  0
 37 38  1  0  0  0  0
 37 44  1  1  0  0  0
 38 39  1  0  0  0  0
 38 40  1  1  0  0  0
 43 47  1  0  0  0  0
 46 48  1  0  0  0  0
 48 43  1  1  0  0  0
M  END
>  <CHROM.1>
-55.76773248,-73.00885887,-58.49229049,-96.26814178,172.05634236,-141.55275192
-179.75371471,59.07985198,-46.01103209,-59.84471248,-176.48569374,-59.29776793
-60.18058374,32.37733344,10.13924015,2.37594834,2.86119751,0.62022724,0.57555172

>  <Name>
ligand

>  <RI>
0

>  <Rbt.Current_Directory>
/home/itssahil/PROJECTS/Mol_Feturizer/New_Systems/rnas/4PDQ

>  <Rbt.Executable>
rbdock ($Id: //depot/dev/client3/rdock/2013.1/src/exe/rbdock.cxx#4 $)

>  <Rbt.Library>
libRbt.so (2013.1, Build901 2013/11/27)

>  <Rbt.Parameter_File>
/export/apps/rDock/src/rDock_2013.1_src/data/scripts/dock_solv.prm

>  <Rbt.Receptor>
prm/pocket_docking_8.prm

>  <SCORE>
-8.81817

>  <SCORE.INTER>
-3.26988

>  <SCORE.INTER.CONST>
1

>  <SCORE.INTER.POLAR>
0

>  <SCORE.INTER.ROT>
13

>  <SCORE.INTER.SOLV>
14.9342

>  <SCORE.INTER.VDW>
-19.4247

>  <SCORE.INTER.norm>
-0.0667323

>  <SCORE.INTRA>
-5.54829

>  <SCORE.INTRA.DIHEDRAL>
-23.8928

>  <SCORE.INTRA.DIHEDRAL.0>
34.5115

>  <SCORE.INTRA.POLAR>
0

>  <SCORE.INTRA.POLAR.0>
0

>  <SCORE.INTRA.REPUL>
0

>  <SCORE.INTRA.REPUL.0>
0

>  <SCORE.INTRA.SOLV>
2.8486

>  <SCORE.INTRA.SOLV.lig_0>
-122.812

>  <SCORE.INTRA.VDW>
4.9738

>  <SCORE.INTRA.VDW.0>
-7.46208

>  <SCORE.INTRA.norm>
-0.11323

>  <SCORE.RESTR>
0

>  <SCORE.RESTR.CAVITY>
0

>  <SCORE.RESTR.norm>
0

>  <SCORE.SYSTEM>
0

>  <SCORE.SYSTEM.CONST>
0

>  <SCORE.SYSTEM.DIHEDRAL>
0

>  <SCORE.SYSTEM.SOLV>
0

>  <SCORE.SYSTEM.norm>
0

>  <SCORE.heavy>
49

>  <SCORE.norm>
-0.179963

>  <RMSD>
10.308

$$$$
ligand
 OpenBabel11021811513D
libRbt.so/2013.1/901 2013/11/27
 49 52  0  0  0  0  0  0  0  0999 V2000
   28.9603   11.4360    4.4621 C   0  0  2  0  0  0  0  0  0  0  0  0
   28.9564   10.0437    4.5780 O   0  0  0  0  0  0  0  0  0  0  0  0
   29.8819   11.8662    3.2609 C   0  0  2  0  0  0  0  0  0  0  0  0
   29.3627   11.2293    1.9814 N   0  0  0  0  0  0  0  0  0  0  0  0
   26.3618    9.9950   10.6016 O   0  0  0  0  0  0  0  0  0  0  0  0
   31.3493   11.4632    3.5367 C   0  0  2  0  0  0  0  0  0  0  0  0
   26.4260    6.1820   14.7560 N   0  0  0  0  0  0  0  0  0  0  0  0
   31.8447   12.1021    4.8436 C   0  0  2  0  0  0  0  0  0  0  0  0
   30.9370   11.6920    6.0796 C   0  0  2  0  0  0  0  0  0  0  0  0
   29.4915   12.0599    5.7401 O   0  0  0  0  0  0  0  0  0  0  0  0
   31.4111   12.3865    7.3890 C   0  0  0  0  0  0  0  0  0  0  0  0
   30.7360   11.9367    8.5535 N   0  0  0  0  0  0  0  0  0  0  0  0
   27.8768    8.6216    8.5296 C   0  0  2  0  0  0  0  0  0  0  0  0
   27.1203    7.9074    9.5994 N   0  0  0  0  0  0  0  0  0  0  0  0
   26.7951    9.3699    7.6095 C   0  0  0  0  0  0  0  0  0  0  0  0
   27.5130   10.1739    6.4621 C   0  0  2  0  0  0  0  0  0  0  0  0
   26.5312   10.8479    5.5998 N   0  0  0  0  0  0  0  0  0  0  0  0
   28.3512    9.2212    5.5864 C   0  0  2  0  0  0  0  0  0  0  0  0
   29.4264    8.4630    6.4650 C   0  0  2  0  0  0  0  0  0  0  0  0
   30.1751    7.5892    5.5402 O   0  0  0  0  0  0  0  0  0  0  0  0
   28.6625    7.5962    7.5905 C   0  0  1  0  0  0  0  0  0  0  0  0
   29.6243    6.9313    8.3471 O   0  0  0  0  0  0  0  0  0  0  0  0
   31.0770    7.9488    4.6915 C   0  0  1  0  0  0  0  0  0  0  0  0
   32.5126    8.1285    5.2672 C   0  0  2  0  0  0  0  0  0  0  0  0
   32.6569    9.4558    5.6637 O   0  0  0  0  0  0  0  0  0  0  0  0
   33.2774    7.8410    4.0422 C   0  0  1  0  0  0  0  0  0  0  0  0
   32.5670    6.6748    3.2881 C   0  0  2  0  0  0  0  0  0  0  0  0
   31.2363    7.0515    3.5447 O   0  0  0  0  0  0  0  0  0  0  0  0
   32.9772    5.2404    3.6245 C   0  0  0  0  0  0  0  0  0  0  0  0
   32.0115    4.4002    3.0210 O   0  0  0  0  0  0  0  0  0  0  0  0
   33.9434    9.1019    2.0447 C   0  0  2  0  0  0  0  0  0  0  0  0
   33.3031    9.1132    3.2503 O   0  0  0  0  0  0  0  0  0  0  0  0
   35.3378    9.6471    2.1413 C   0  0  1  0  0  0  0  0  0  0  0  0
   32.7072   12.1851   -1.0596 N   0  0  0  0  0  0  0  0  0  0  0  0
   24.8985    6.8039   11.0124 O   0  0  0  0  0  0  0  0  0  0  0  0
   35.9981    9.6521    0.7081 C   0  0  2  0  0  0  0  0  0  0  0  0
   35.1825   10.4628   -0.3578 C   0  0  1  0  0  0  0  0  0  0  0  0
   33.8492    9.9142   -0.4397 C   0  0  1  0  0  0  0  0  0  0  0  0
   33.1917    9.8978    0.9273 O   0  0  0  0  0  0  0  0  0  0  0  0
   32.9699   10.7365   -1.4808 C   0  0  0  0  0  0  0  0  0  0  0  0
   35.3054   10.9750    2.6122 N   0  0  0  0  0  0  0  0  0  0  0  0
   32.0035   11.8218    2.6708 O   0  0  0  0  0  0  0  0  0  0  0  0
   26.5478    7.3324   12.4822 C   0  0  0  0  0  0  0  0  0  0  0  0
   35.1146   11.5539   -0.0077 O   0  0  0  0  0  0  0  0  0  0  0  0
   36.0462    8.5660    0.3322 O   0  0  0  0  0  0  0  0  0  0  0  0
   26.3918    8.7562   10.5982 C   0  0  0  0  0  0  0  0  0  0  0  0
   25.9170    6.7805   13.5746 C   0  0  0  0  0  0  0  0  0  0  0  0
   25.6139    7.8414   11.6797 C   0  0  1  0  0  0  0  0  0  0  0  0
   31.8227   13.5035    4.7300 F   0  0  0  0  0  0  0  0  0  0  0  0
  1  2  1  1  0  0  0
  1 10  1  0  0  0  0
  1  3  1  0  0  0  0
  3  4  1  6  0  0  0
  3  6  1  0  0  0  0
  5 46  2  0  0  0  0
  6 42  1  6  0  0  0
  6  8  1  0  0  0  0
  7 47  1  0  0  0  0
  8  9  1  0  0  0  0
  8 49  1  6  0  0  0
  9 10  1  0  0  0  0
  9 11  1  1  0  0  0
 11 12  1  0  0  0  0
 13 14  1  1  0  0  0
 13 15  1  0  0  0  0
 13 21  1  0  0  0  0
 14 46  1  0  0  0  0
 15 16  1  0  0  0  0
 16 17  1  6  0  0  0
 16 18  1  0  0  0  0
 18  2  1  6  0  0  0
 18 19  1  0  0  0  0
 19 20  1  6  0  0  0
 19 21  1  0  0  0  0
 21 22  1  1  0  0  0
 23 20  1  1  0  0  0
 23 24  1  0  0  0  0
 23 28  1  0  0  0  0
 24 25  1  6  0  0  0
 24 26  1  0  0  0  0
 26 27  1  0  0  0  0
 26 32  1  6  0  0  0
 27 28  1  0  0  0  0
 27 29  1  1  0  0  0
 29 30  1  0  0  0  0
 31 32  1  1  0  0  0
 31 33  1  0  0  0  0
 31 39  1  0  0  0  0
 33 36  1  0  0  0  0
 33 41  1  6  0  0  0
 34 40  1  0  0  0  0
 35 48  1  0  0  0  0
 36 37  1  0  0  0  0
 36 45  1  6  0  0  0
 37 38  1  0  0  0  0
 37 44  1  1  0  0  0
 38 39  1  0  0  0  0
 38 40  1  6  0  0  0
 43 47  1  0  0  0  0
 46 48  1  0  0  0  0
 48 43  1  1  0  0  0
M  END
>  <CHROM.1>
174.36527396,7.43917210,-172.99681303,-66.35856232,75.44827882,82.54151166
-178.99391541,168.30812197,-98.03579176,-65.28746395,-175.89559803,-72.95681819
132.39877139,30.67974367,9.40840293,5.19742537,2.66891956,-0.84630781,2.75478396

>  <Name>
ligand

>  <RI>
0

>  <Rbt.Current_Directory>
/home/itssahil/PROJECTS/Mol_Feturizer/New_Systems/rnas/4PDQ

>  <Rbt.Executable>
rbdock ($Id: //depot/dev/client3/rdock/2013.1/src/exe/rbdock.cxx#4 $)

>  <Rbt.Library>
libRbt.so (2013.1, Build901 2013/11/27)

>  <Rbt.Parameter_File>
/export/apps/rDock/src/rDock_2013.1_src/data/scripts/dock_solv.prm

>  <Rbt.Receptor>
prm/pocket_docking_6.prm

>  <SCORE>
-5.95824

>  <SCORE.INTER>
0.133712

>  <SCORE.INTER.CONST>
1

>  <SCORE.INTER.POLAR>
0

>  <SCORE.INTER.ROT>
13

>  <SCORE.INTER.SOLV>
20.5577

>  <SCORE.INTER.VDW>
-19.0301

>  <SCORE.INTER.norm>
0.00272883

>  <SCORE.INTRA>
-6.11026

>  <SCORE.INTRA.DIHEDRAL>
-16.5478

>  <SCORE.INTRA.DIHEDRAL.0>
34.5115

>  <SCORE.INTRA.POLAR>
0

>  <SCORE.INTRA.POLAR.0>
0

>  <SCORE.INTRA.REPUL>
0

>  <SCORE.INTRA.REPUL.0>
0

>  <SCORE.INTRA.SOLV>
1.32566

>  <SCORE.INTRA.SOLV.lig_0>
-122.812

>  <SCORE.INTRA.VDW>
1.50083

>  <SCORE.INTRA.VDW.0>
-7.46208

>  <SCORE.INTRA.norm>
-0.124699

>  <SCORE.RESTR>
0.0183053

>  <SCORE.RESTR.CAVITY>
0.0183053

>  <SCORE.RESTR.norm>
0.000373578

>  <SCORE.SYSTEM>
0

>  <SCORE.SYSTEM.CONST>
0

>  <SCORE.SYSTEM.DIHEDRAL>
0

>  <SCORE.SYSTEM.SOLV>
0

>  <SCORE.SYSTEM.norm>
0

>  <SCORE.heavy>
49

>  <SCORE.norm>
-0.121597

>  <RMSD>
10.311

$$$$
ligand
 OpenBabel11021811513D
libRbt.so/2013.1/901 2013/11/27
 49 52  0  0  0  0  0  0  0  0999 V2000
   25.7063   14.6210    6.2401 C   0  0  2  0  0  0  0  0  0  0  0  0
   26.0937   14.5380    7.5798 O   0  0  0  0  0  0  0  0  0  0  0  0
   26.7964   15.4058    5.4198 C   0  0  2  0  0  0  0  0  0  0  0  0
   28.1287   14.6829    5.5424 N   0  0  0  0  0  0  0  0  0  0  0  0
   26.2773   10.6559   11.8029 O   0  0  0  0  0  0  0  0  0  0  0  0
   26.8986   16.8660    5.9191 C   0  0  2  0  0  0  0  0  0  0  0  0
   28.5401    5.4186   12.5835 N   0  0  0  0  0  0  0  0  0  0  0  0
   25.5369   17.5689    5.8040 C   0  0  2  0  0  0  0  0  0  0  0  0
   24.4095   16.8038    6.6184 C   0  0  2  0  0  0  0  0  0  0  0  0
   24.3818   15.3546    6.1291 O   0  0  0  0  0  0  0  0  0  0  0  0
   23.0226   17.4897    6.4520 C   0  0  0  0  0  0  0  0  0  0  0  0
   23.0636   18.9031    6.5733 N   0  0  0  0  0  0  0  0  0  0  0  0
   25.9225   10.4187    8.9232 C   0  0  2  0  0  0  0  0  0  0  0  0
   26.0106    9.2417    9.8365 N   0  0  0  0  0  0  0  0  0  0  0  0
   27.2421   11.3000    9.1646 C   0  0  0  0  0  0  0  0  0  0  0  0
   27.2430   12.5574    8.2175 C   0  0  2  0  0  0  0  0  0  0  0  0
   28.4378   13.3841    8.4436 N   0  0  0  0  0  0  0  0  0  0  0  0
   25.9974   13.4265    8.4826 C   0  0  2  0  0  0  0  0  0  0  0  0
   24.6767   12.5851    8.2573 C   0  0  2  0  0  0  0  0  0  0  0  0
   23.5511   13.5015    8.5265 O   0  0  0  0  0  0  0  0  0  0  0  0
   24.6696   11.3411    9.2839 C   0  0  1  0  0  0  0  0  0  0  0  0
   23.4974   10.6186    9.0755 O   0  0  0  0  0  0  0  0  0  0  0  0
   23.3713   14.2213    9.5812 C   0  0  1  0  0  0  0  0  0  0  0  0
   22.5783   13.5412   10.7359 C   0  0  2  0  0  0  0  0  0  0  0  0
   21.2273   13.8327   10.5635 O   0  0  0  0  0  0  0  0  0  0  0  0
   23.1552   14.2870   11.8668 C   0  0  1  0  0  0  0  0  0  0  0  0
   24.6771   14.4888   11.5902 C   0  0  2  0  0  0  0  0  0  0  0  0
   24.6002   14.7182   10.2046 O   0  0  0  0  0  0  0  0  0  0  0  0
   25.6495   13.4148   12.0801 C   0  0  0  0  0  0  0  0  0  0  0  0
   25.4673   13.3243   13.4805 O   0  0  0  0  0  0  0  0  0  0  0  0
   22.7632   16.5829   11.0934 C   0  0  2  0  0  0  0  0  0  0  0  0
   22.4039   15.5812   11.9483 O   0  0  0  0  0  0  0  0  0  0  0  0
   23.5323   17.6683   11.7874 C   0  0  1  0  0  0  0  0  0  0  0  0
   19.7541   17.8627    7.9560 N   0  0  0  0  0  0  0  0  0  0  0  0
   25.0772    7.3948   11.9353 O   0  0  0  0  0  0  0  0  0  0  0  0
   23.8692   18.8130   10.7548 C   0  0  2  0  0  0  0  0  0  0  0  0
   22.6049   19.4212   10.0545 C   0  0  1  0  0  0  0  0  0  0  0  0
   21.8876   18.3607    9.3863 C   0  0  1  0  0  0  0  0  0  0  0  0
   21.5516   17.2459   10.3586 O   0  0  0  0  0  0  0  0  0  0  0  0
   20.5696   18.9264    8.6966 C   0  0  0  0  0  0  0  0  0  0  0  0
   22.7533   18.2270   12.8205 N   0  0  0  0  0  0  0  0  0  0  0  0
   27.6658   17.4249    5.2824 O   0  0  0  0  0  0  0  0  0  0  0  0
   27.3366    7.4976   11.7246 C   0  0  0  0  0  0  0  0  0  0  0  0
   21.9282   19.8762   10.8622 O   0  0  0  0  0  0  0  0  0  0  0  0
   24.5243   18.3635    9.9229 O   0  0  0  0  0  0  0  0  0  0  0  0
   26.1979    9.5276   11.2966 C   0  0  0  0  0  0  0  0  0  0  0  0
   27.5522    6.4368   12.5756 C   0  0  0  0  0  0  0  0  0  0  0  0
   26.2617    8.1585   12.1526 C   0  0  1  0  0  0  0  0  0  0  0  0
   25.1404   17.6272    4.4562 F   0  0  0  0  0  0  0  0  0  0  0  0
  1  2  1  1  0  0  0
  1 10  1  0  0  0  0
  1  3  1  0  0  0  0
  3  4  1  1  0  0  0
  3  6  1  0  0  0  0
  5 46  2  0  0  0  0
  6 42  1  6  0  0  0
  6  8  1  0  0  0  0
  7 47  1  0  0  0  0
  8  9  1  0  0  0  0
  8 49  1  6  0  0  0
  9 10  1  0  0  0  0
  9 11  1  6  0  0  0
 11 12  1  0  0  0  0
 13 14  1  1  0  0  0
 13 15  1  0  0  0  0
 13 21  1  0  0  0  0
 14 46  1  0  0  0  0
 15 16  1  0  0  0  0
 16 17  1  1  0  0  0
 16 18  1  0  0  0  0
 18  2  1  6  0  0  0
 18 19  1  0  0  0  0
 19 20  1  1  0  0  0
 19 21  1  0  0  0  0
 21 22  1  6  0  0  0
 23 20  1  6  0  0  0
 23 24  1  0  0  0  0
 23 28  1  0  0  0  0
 24 25  1  6  0  0  0
 24 26  1  0  0  0  0
 26 27  1  0  0  0  0
 26 32  1  6  0  0  0
 27 28  1  0  0  0  0
 27 29  1  6  0  0  0
 29 30  1  0  0  0  0
 31 32  1  1  0  0  0
 31 33  1  0  0  0  0
 31 39  1  0  0  0  0
 33 36  1  0  0  0  0
 33 41  1  1  0  0  0
 34 40  1  0  0  0  0
 35 48  1  0  0  0  0
 36 37  1  0  0  0  0
 36 45  1  6  0  0  0
 37 38  1  0  0  0  0
 37 44  1  1  0  0  0
 38 39  1  0  0  0  0
 38 40  1  1  0  0  0
 43 47  1  0  0  0  0
 46 48  1  0  0  0  0
 48 43  1  6  0  0  0
M  END
>  <CHROM.1>
-138.56631801,83.82391851,-44.76603461,55.22493907,-52.57489837,-89.31332415
-80.59630893,-58.52383816,-105.36694535,179.61093912,179.58356675,-70.36865873
121.97478092,24.67748408,14.30381183,9.37375365,-2.09154898,-0.86550831,2.42271658

>  <Name>
ligand

>  <RI>
0

>  <Rbt.Current_Directory>
/home/itssahil/PROJECTS/Mol_Feturizer/New_Systems/rnas/4PDQ

>  <Rbt.Executable>
rbdock ($Id: //depot/dev/client3/rdock/2013.1/src/exe/rbdock.cxx#4 $)

>  <Rbt.Library>
libRbt.so (2013.1, Build901 2013/11/27)

>  <Rbt.Parameter_File>
/export/apps/rDock/src/rDock_2013.1_src/data/scripts/dock_solv.prm

>  <Rbt.Receptor>
prm/blind_docking_60.prm

>  <SCORE>
0.521786

>  <SCORE.INTER>
-3.62842

>  <SCORE.INTER.CONST>
1

>  <SCORE.INTER.POLAR>
0

>  <SCORE.INTER.ROT>
13

>  <SCORE.INTER.SOLV>
31.023

>  <SCORE.INTER.VDW>
-25.0266

>  <SCORE.INTER.norm>
-0.0740494

>  <SCORE.INTRA>
-0.160207

>  <SCORE.INTRA.DIHEDRAL>
-12.5623

>  <SCORE.INTRA.DIHEDRAL.0>
34.5115

>  <SCORE.INTRA.POLAR>
0

>  <SCORE.INTRA.POLAR.0>
0

>  <SCORE.INTRA.REPUL>
0

>  <SCORE.INTRA.REPUL.0>
0

>  <SCORE.INTRA.SOLV>
5.60087

>  <SCORE.INTRA.SOLV.lig_0>
-122.812

>  <SCORE.INTRA.VDW>
3.32051

>  <SCORE.INTRA.VDW.0>
-7.46208

>  <SCORE.INTRA.norm>
-0.00326953

>  <SCORE.RESTR>
4.31042

>  <SCORE.RESTR.CAVITY>
4.31042

>  <SCORE.RESTR.norm>
0.0879677

>  <SCORE.SYSTEM>
0

>  <SCORE.SYSTEM.CONST>
0

>  <SCORE.SYSTEM.DIHEDRAL>
0

>  <SCORE.SYSTEM.SOLV>
0

>  <SCORE.SYSTEM.norm>
0

>  <SCORE.heavy>
49

>  <SCORE.norm>
0.0106487

>  <RMSD>
10.340

$$$$
ligand
 OpenBabel11021811513D
libRbt.so/2013.1/901 2013/11/27
 49 52  0  0  0  0  0  0  0  0999 V2000
   26.2861    8.0877    7.8610 C   0  0  2  0  0  0  0  0  0  0  0  0
   25.8844    8.8373    8.9695 O   0  0  0  0  0  0  0  0  0  0  0  0
   25.1814    7.0223    7.5121 C   0  0  2  0  0  0  0  0  0  0  0  0
   23.8721    7.7388    7.2209 N   0  0  0  0  0  0  0  0  0  0  0  0
   26.3627   15.4311   10.6633 O   0  0  0  0  0  0  0  0  0  0  0  0
   25.0249    6.0094    8.6702 C   0  0  2  0  0  0  0  0  0  0  0  0
   27.6194   16.5747   16.2093 N   0  0  0  0  0  0  0  0  0  0  0  0
   26.3642    5.3132    8.9588 C   0  0  2  0  0  0  0  0  0  0  0  0
   27.5056    6.3578    9.3136 C   0  0  2  0  0  0  0  0  0  0  0  0
   27.5871    7.3678    8.1674 O   0  0  0  0  0  0  0  0  0  0  0  0
   28.8712    5.6501    9.5499 C   0  0  0  0  0  0  0  0  0  0  0  0
   28.8665    4.7452   10.6430 N   0  0  0  0  0  0  0  0  0  0  0  0
   26.5546   12.5582   11.0928 C   0  0  2  0  0  0  0  0  0  0  0  0
   27.2137   13.5635   11.9771 N   0  0  0  0  0  0  0  0  0  0  0  0
   26.5761   11.1577   11.8768 C   0  0  0  0  0  0  0  0  0  0  0  0
   25.8740   10.0387   11.0205 C   0  0  2  0  0  0  0  0  0  0  0  0
   25.9052    8.7457   11.7196 N   0  0  0  0  0  0  0  0  0  0  0  0
   26.5925    9.8729    9.6665 C   0  0  2  0  0  0  0  0  0  0  0  0
   26.5929   11.2391    8.8686 C   0  0  2  0  0  0  0  0  0  0  0  0
   27.2912   10.9745    7.5951 O   0  0  0  0  0  0  0  0  0  0  0  0
   27.3743   12.3503    9.7380 C   0  0  1  0  0  0  0  0  0  0  0  0
   27.3706   13.5414    9.0163 O   0  0  0  0  0  0  0  0  0  0  0  0
   26.7776   10.4975    6.5127 C   0  0  1  0  0  0  0  0  0  0  0  0
   25.6434   11.3497    5.8709 C   0  0  2  0  0  0  0  0  0  0  0  0
   24.4271   10.9128    6.3902 O   0  0  0  0  0  0  0  0  0  0  0  0
   25.8189   10.9292    4.4708 C   0  0  1  0  0  0  0  0  0  0  0  0
   27.3480   10.8008    4.1899 C   0  0  2  0  0  0  0  0  0  0  0  0
   27.7347   10.2600    5.4295 O   0  0  0  0  0  0  0  0  0  0  0  0
   28.0972   12.0362    3.6885 C   0  0  0  0  0  0  0  0  0  0  0  0
   27.4821   12.4046    2.4684 O   0  0  0  0  0  0  0  0  0  0  0  0
   24.9581    9.1073    3.0697 C   0  0  2  0  0  0  0  0  0  0  0  0
   25.0911    9.6272    4.3249 O   0  0  0  0  0  0  0  0  0  0  0  0
   24.1325    7.8545    3.0624 C   0  0  1  0  0  0  0  0  0  0  0  0
   28.5593    9.2247    0.2962 N   0  0  0  0  0  0  0  0  0  0  0  0
   27.8421   17.2994   12.1648 O   0  0  0  0  0  0  0  0  0  0  0  0
   24.0632    7.2821    1.5935 C   0  0  2  0  0  0  0  0  0  0  0  0
   25.4699    6.9960    0.9625 C   0  0  1  0  0  0  0  0  0  0  0  0
   26.2413    8.2168    0.9717 C   0  0  1  0  0  0  0  0  0  0  0  0
   26.3227    8.7885    2.3744 O   0  0  0  0  0  0  0  0  0  0  0  0
   27.6962    7.9625    0.3788 C   0  0  0  0  0  0  0  0  0  0  0  0
   24.7299    6.8779    3.8844 N   0  0  0  0  0  0  0  0  0  0  0  0
   24.2481    5.2241    8.3764 O   0  0  0  0  0  0  0  0  0  0  0  0
   27.0756   15.9250   13.8029 C   0  0  0  0  0  0  0  0  0  0  0  0
   26.0044    6.2137    1.6106 O   0  0  0  0  0  0  0  0  0  0  0  0
   23.5549    8.0691    0.9261 O   0  0  0  0  0  0  0  0  0  0  0  0
   27.0246   15.0081   11.6218 C   0  0  0  0  0  0  0  0  0  0  0  0
   27.8558   16.4326   14.8176 C   0  0  0  0  0  0  0  0  0  0  0  0
   27.7844   15.9693   12.6755 C   0  0  1  0  0  0  0  0  0  0  0  0
   26.7760    4.5807    7.8313 F   0  0  0  0  0  0  0  0  0  0  0  0
  1  2  1  1  0  0  0
  1 10  1  0  0  0  0
  1  3  1  0  0  0  0
  3  4  1  1  0  0  0
  3  6  1  0  0  0  0
  5 46  2  0  0  0  0
  6 42  1  6  0  0  0
  6  8  1  0  0  0  0
  7 47  1  0  0  0  0
  8  9  1  0  0  0  0
  8 49  1  6  0  0  0
  9 10  1  0  0  0  0
  9 11  1  6  0  0  0
 11 12  1  0  0  0  0
 13 14  1  1  0  0  0
 13 15  1  0  0  0  0
 13 21  1  0  0  0  0
 14 46  1  0  0  0  0
 15 16  1  0  0  0  0
 16 17  1  1  0  0  0
 16 18  1  0  0  0  0
 18  2  1  6  0  0  0
 18 19  1  0  0  0  0
 19 20  1  6  0  0  0
 19 21  1  0  0  0  0
 21 22  1  6  0  0  0
 23 20  1  1  0  0  0
 23 24  1  0  0  0  0
 23 28  1  0  0  0  0
 24 25  1  1  0  0  0
 24 26  1  0  0  0  0
 26 27  1  0  0  0  0
 26 32  1  1  0  0  0
 27 28  1  0  0  0  0
 27 29  1  1  0  0  0
 29 30  1  0  0  0  0
 31 32  1  1  0  0  0
 31 33  1  0  0  0  0
 31 39  1  0  0  0  0
 33 36  1  0  0  0  0
 33 41  1  1  0  0  0
 34 40  1  0  0  0  0
 35 48  1  0  0  0  0
 36 37  1  0  0  0  0
 36 45  1  6  0  0  0
 37 38  1  0  0  0  0
 37 44  1  1  0  0  0
 38 39  1  0  0  0  0
 38 40  1  1  0  0  0
 43 47  1  0  0  0  0
 46 48  1  0  0  0  0
 48 43  1  1  0  0  0
M  END
>  <CHROM.1>
177.18391768,-163.47858335,-62.15988631,-165.50143380,85.14180127,61.05751143
171.84529114,-59.87104605,-176.16923079,177.44881147,-177.52781843,-76.12835270
-13.61882154,26.44211552,9.95899397,7.31429654,2.81558298,-1.44451056,-0.93443993

>  <Name>
ligand

>  <RI>
0

>  <Rbt.Current_Directory>
/home/itssahil/PROJECTS/Mol_Feturizer/New_Systems/rnas/4PDQ

>  <Rbt.Executable>
rbdock ($Id: //depot/dev/client3/rdock/2013.1/src/exe/rbdock.cxx#4 $)

>  <Rbt.Library>
libRbt.so (2013.1, Build901 2013/11/27)

>  <Rbt.Parameter_File>
/export/apps/rDock/src/rDock_2013.1_src/data/scripts/dock_solv.prm

>  <Rbt.Receptor>
prm/pocket_docking_8.prm

>  <SCORE>
-16.1313

>  <SCORE.INTER>
-3.93908

>  <SCORE.INTER.CONST>
1

>  <SCORE.INTER.POLAR>
0

>  <SCORE.INTER.ROT>
13

>  <SCORE.INTER.SOLV>
23.1902

>  <SCORE.INTER.VDW>
-22.6228

>  <SCORE.INTER.norm>
-0.0803893

>  <SCORE.INTRA>
-12.1922

>  <SCORE.INTRA.DIHEDRAL>
-27.934

>  <SCORE.INTRA.DIHEDRAL.0>
34.5115

>  <SCORE.INTRA.POLAR>
0

>  <SCORE.INTRA.POLAR.0>
0

>  <SCORE.INTRA.REPUL>
0

>  <SCORE.INTRA.REPUL.0>
0

>  <SCORE.INTRA.SOLV>
0.454347

>  <SCORE.INTRA.SOLV.lig_0>
-122.812

>  <SCORE.INTRA.VDW>
1.54766

>  <SCORE.INTRA.VDW.0>
-7.46208

>  <SCORE.INTRA.norm>
-0.24882

>  <SCORE.RESTR>
0

>  <SCORE.RESTR.CAVITY>
0

>  <SCORE.RESTR.norm>
0

>  <SCORE.SYSTEM>
0

>  <SCORE.SYSTEM.CONST>
0

>  <SCORE.SYSTEM.DIHEDRAL>
0

>  <SCORE.SYSTEM.SOLV>
0

>  <SCORE.SYSTEM.norm>
0

>  <SCORE.heavy>
49

>  <SCORE.norm>
-0.32921

>  <RMSD>
10.345

$$$$
ligand
 OpenBabel11021811513D
libRbt.so/2013.1/901 2013/11/27
 49 52  0  0  0  0  0  0  0  0999 V2000
   24.1508   12.6024    9.7250 C   0  0  2  0  0  0  0  0  0  0  0  0
   25.0808   11.9640    8.9006 O   0  0  0  0  0  0  0  0  0  0  0  0
   23.9062   14.0701    9.2121 C   0  0  2  0  0  0  0  0  0  0  0  0
   23.3979   14.0195    7.7799 N   0  0  0  0  0  0  0  0  0  0  0  0
   28.0311    7.4820   13.1716 O   0  0  0  0  0  0  0  0  0  0  0  0
   25.2053   14.9022    9.3208 C   0  0  2  0  0  0  0  0  0  0  0  0
   31.3325    5.0928   14.0421 N   0  0  0  0  0  0  0  0  0  0  0  0
   25.7099   14.9222   10.7722 C   0  0  2  0  0  0  0  0  0  0  0  0
   25.9665   13.4569   11.3258 C   0  0  2  0  0  0  0  0  0  0  0  0
   24.6741   12.6577   11.1490 O   0  0  0  0  0  0  0  0  0  0  0  0
   26.4238   13.4824   12.8131 C   0  0  0  0  0  0  0  0  0  0  0  0
   26.5868   12.1939   13.3850 N   0  0  0  0  0  0  0  0  0  0  0  0
   26.4699    8.3636   10.8781 C   0  0  2  0  0  0  0  0  0  0  0  0
   26.9464    6.9603   11.0528 N   0  0  0  0  0  0  0  0  0  0  0  0
   25.2134    8.3120    9.8806 C   0  0  0  0  0  0  0  0  0  0  0  0
   24.6292    9.7568    9.6587 C   0  0  2  0  0  0  0  0  0  0  0  0
   23.4895    9.7254    8.7303 N   0  0  0  0  0  0  0  0  0  0  0  0
   25.7090   10.6843    9.0665 C   0  0  2  0  0  0  0  0  0  0  0  0
   26.9656   10.7543   10.0251 C   0  0  2  0  0  0  0  0  0  0  0  0
   27.9301   11.6652    9.3774 O   0  0  0  0  0  0  0  0  0  0  0  0
   27.5838    9.2730   10.1832 C   0  0  1  0  0  0  0  0  0  0  0  0
   28.6917    9.3570   11.0228 O   0  0  0  0  0  0  0  0  0  0  0  0
   28.3640   11.6016    8.1648 C   0  0  1  0  0  0  0  0  0  0  0  0
   29.4973   12.6051    7.7996 C   0  0  2  0  0  0  0  0  0  0  0  0
   28.9057   13.7644    7.3038 O   0  0  0  0  0  0  0  0  0  0  0  0
   30.1443   11.8255    6.7312 C   0  0  1  0  0  0  0  0  0  0  0  0
   30.1424   10.3244    7.1555 C   0  0  2  0  0  0  0  0  0  0  0  0
   28.8732   10.2889    7.7607 O   0  0  0  0  0  0  0  0  0  0  0  0
   31.3302    9.8000    7.9636 C   0  0  0  0  0  0  0  0  0  0  0  0
   31.3608    8.3999    7.7599 O   0  0  0  0  0  0  0  0  0  0  0  0
   29.6546   11.3389    4.3760 C   0  0  2  0  0  0  0  0  0  0  0  0
   29.3521   12.0767    5.4840 O   0  0  0  0  0  0  0  0  0  0  0  0
   31.0919   11.4897    3.9729 C   0  0  1  0  0  0  0  0  0  0  0  0
   26.5871   11.0511    1.0034 N   0  0  0  0  0  0  0  0  0  0  0  0
   27.5907    4.4045   11.2433 O   0  0  0  0  0  0  0  0  0  0  0  0
   31.3578   10.6539    2.6611 C   0  0  2  0  0  0  0  0  0  0  0  0
   30.4252   11.0480    1.4637 C   0  0  1  0  0  0  0  0  0  0  0  0
   29.0495   10.8856    1.8721 C   0  0  1  0  0  0  0  0  0  0  0  0
   28.7677   11.6801    3.1333 O   0  0  0  0  0  0  0  0  0  0  0  0
   28.0642   11.3174    0.6992 C   0  0  0  0  0  0  0  0  0  0  0  0
   31.3759   12.8418    3.6947 N   0  0  0  0  0  0  0  0  0  0  0  0
   24.9919   15.9726    8.9816 O   0  0  0  0  0  0  0  0  0  0  0  0
   29.5047    5.0812   12.2623 C   0  0  0  0  0  0  0  0  0  0  0  0
   30.6097   12.1522    1.2102 O   0  0  0  0  0  0  0  0  0  0  0  0
   31.1484    9.5468    2.8932 O   0  0  0  0  0  0  0  0  0  0  0  0
   27.7443    6.6627   12.2872 C   0  0  0  0  0  0  0  0  0  0  0  0
   30.0074    5.1705   13.5411 C   0  0  0  0  0  0  0  0  0  0  0  0
   28.1747    5.1059   12.3388 C   0  0  1  0  0  0  0  0  0  0  0  0
   24.7591   15.5434   11.6013 F   0  0  0  0  0  0  0  0  0  0  0  0
  1  2  1  6  0  0  0
  1 10  1  0  0  0  0
  1  3  1  0  0  0  0
  3  4  1  6  0  0  0
  3  6  1  0  0  0  0
  5 46  2  0  0  0  0
  6 42  1  1  0  0  0
  6  8  1  0  0  0  0
  7 47  1  0  0  0  0
  8  9  1  0  0  0  0
  8 49  1  1  0  0  0
  9 10  1  0  0  0  0
  9 11  1  1  0  0  0
 11 12  1  0  0  0  0
 13 14  1  6  0  0  0
 13 15  1  0  0  0  0
 13 21  1  0  0  0  0
 14 46  1  0  0  0  0
 15 16  1  0  0  0  0
 16 17  1  6  0  0  0
 16 18  1  0  0  0  0
 18  2  1  1  0  0  0
 18 19  1  0  0  0  0
 19 20  1  6  0  0  0
 19 21  1  0  0  0  0
 21 22  1  1  0  0  0
 23 20  1  1  0  0  0
 23 24  1  0  0  0  0
 23 28  1  0  0  0  0
 24 25  1  6  0  0  0
 24 26  1  0  0  0  0
 26 27  1  0  0  0  0
 26 32  1  6  0  0  0
 27 28  1  0  0  0  0
 27 29  1  1  0  0  0
 29 30  1  0  0  0  0
 31 32  1  1  0  0  0
 31 33  1  0  0  0  0
 31 39  1  0  0  0  0
 33 36  1  0  0  0  0
 33 41  1  6  0  0  0
 34 40  1  0  0  0  0
 35 48  1  0  0  0  0
 36 37  1  0  0  0  0
 36 45  1  1  0  0  0
 37 38  1  0  0  0  0
 37 44  1  1  0  0  0
 38 39  1  0  0  0  0
 38 40  1  6  0  0  0
 43 47  1  0  0  0  0
 46 48  1  0  0  0  0
 48 43  1  6  0  0  0
M  END
>  <CHROM.1>
172.57384285,37.65747948,176.25068323,-157.76758127,-51.84610540,-173.53631098
-172.34066593,-157.31527043,-57.35327966,174.54885138,174.77988740,-152.02020752
174.61742252,27.81595357,10.73458769,8.30877082,1.97440568,-0.87711271,2.19712434

>  <Name>
ligand

>  <RI>
0

>  <Rbt.Current_Directory>
/home/itssahil/PROJECTS/Mol_Feturizer/New_Systems/rnas/4PDQ

>  <Rbt.Executable>
rbdock ($Id: //depot/dev/client3/rdock/2013.1/src/exe/rbdock.cxx#4 $)

>  <Rbt.Library>
libRbt.so (2013.1, Build901 2013/11/27)

>  <Rbt.Parameter_File>
/export/apps/rDock/src/rDock_2013.1_src/data/scripts/dock_solv.prm

>  <Rbt.Receptor>
prm/pocket_docking_8.prm

>  <SCORE>
-11.432

>  <SCORE.INTER>
-0.217027

>  <SCORE.INTER.CONST>
1

>  <SCORE.INTER.POLAR>
0

>  <SCORE.INTER.ROT>
13

>  <SCORE.INTER.SOLV>
21.2125

>  <SCORE.INTER.VDW>
-19.4822

>  <SCORE.INTER.norm>
-0.00442913

>  <SCORE.INTRA>
-11.215

>  <SCORE.INTRA.DIHEDRAL>
-24.1374

>  <SCORE.INTRA.DIHEDRAL.0>
34.5115

>  <SCORE.INTRA.POLAR>
0

>  <SCORE.INTRA.POLAR.0>
0

>  <SCORE.INTRA.REPUL>
0

>  <SCORE.INTRA.REPUL.0>
0

>  <SCORE.INTRA.SOLV>
-2.85838

>  <SCORE.INTRA.SOLV.lig_0>
-122.812

>  <SCORE.INTRA.VDW>
2.2829

>  <SCORE.INTRA.VDW.0>
-7.46208

>  <SCORE.INTRA.norm>
-0.228878

>  <SCORE.RESTR>
0

>  <SCORE.RESTR.CAVITY>
0

>  <SCORE.RESTR.norm>
0

>  <SCORE.SYSTEM>
0

>  <SCORE.SYSTEM.CONST>
0

>  <SCORE.SYSTEM.DIHEDRAL>
0

>  <SCORE.SYSTEM.SOLV>
0

>  <SCORE.SYSTEM.norm>
0

>  <SCORE.heavy>
49

>  <SCORE.norm>
-0.233307

>  <RMSD>
10.346

$$$$
ligand
 OpenBabel11021811513D
libRbt.so/2013.1/901 2013/11/27
 49 52  0  0  0  0  0  0  0  0999 V2000
   25.6602   15.7761    5.9108 C   0  0  2  0  0  0  0  0  0  0  0  0
   26.1363   15.8251    7.2234 O   0  0  0  0  0  0  0  0  0  0  0  0
   25.8241   17.1874    5.2336 C   0  0  2  0  0  0  0  0  0  0  0  0
   27.2929   17.5807    5.2503 N   0  0  0  0  0  0  0  0  0  0  0  0
   27.0348   12.0947   11.5348 O   0  0  0  0  0  0  0  0  0  0  0  0
   24.9504   18.2376    5.9588 C   0  0  2  0  0  0  0  0  0  0  0  0
   26.8669    9.8533   14.6751 N   0  0  0  0  0  0  0  0  0  0  0  0
   23.4748   17.8088    5.9462 C   0  0  2  0  0  0  0  0  0  0  0  0
   23.2699   16.3864    6.6204 C   0  0  2  0  0  0  0  0  0  0  0  0
   24.1908   15.3945    5.9074 O   0  0  0  0  0  0  0  0  0  0  0  0
   21.7823   15.9343    6.5543 C   0  0  0  0  0  0  0  0  0  0  0  0
   21.5490   14.6478    7.1061 N   0  0  0  0  0  0  0  0  0  0  0  0
   26.9727   11.8124    8.6381 C   0  0  2  0  0  0  0  0  0  0  0  0
   27.3856   10.7128    9.5587 N   0  0  0  0  0  0  0  0  0  0  0  0
   28.0824   12.9660    8.7573 C   0  0  0  0  0  0  0  0  0  0  0  0
   27.7360   14.1623    7.7945 C   0  0  2  0  0  0  0  0  0  0  0  0
   28.7350   15.2350    7.9095 N   0  0  0  0  0  0  0  0  0  0  0  0
   26.3547   14.7491    8.1476 C   0  0  2  0  0  0  0  0  0  0  0  0
   25.2364   13.6347    8.0439 C   0  0  2  0  0  0  0  0  0  0  0  0
   23.9618   14.2939    8.3906 O   0  0  0  0  0  0  0  0  0  0  0  0
   25.5800   12.4528    9.0862 C   0  0  1  0  0  0  0  0  0  0  0  0
   24.5815   11.4872    8.9854 O   0  0  0  0  0  0  0  0  0  0  0  0
   23.7217   15.0232    9.4266 C   0  0  1  0  0  0  0  0  0  0  0  0
   22.3576   14.7661   10.1320 C   0  0  2  0  0  0  0  0  0  0  0  0
   21.4124   15.6221    9.5718 O   0  0  0  0  0  0  0  0  0  0  0  0
   22.7320   15.1859   11.4927 C   0  0  1  0  0  0  0  0  0  0  0  0
   24.1869   14.6959   11.7695 C   0  0  2  0  0  0  0  0  0  0  0  0
   24.7240   14.9306   10.4908 O   0  0  0  0  0  0  0  0  0  0  0  0
   24.3783   13.3053   12.3766 C   0  0  0  0  0  0  0  0  0  0  0  0
   25.5805   13.3601   13.1211 O   0  0  0  0  0  0  0  0  0  0  0  0
   23.1981   17.3912   10.5217 C   0  0  2  0  0  0  0  0  0  0  0  0
   22.6068   16.6791   11.5251 O   0  0  0  0  0  0  0  0  0  0  0  0
   24.6747   17.5488   10.7360 C   0  0  1  0  0  0  0  0  0  0  0  0
   22.9776   21.9378    7.9519 N   0  0  0  0  0  0  0  0  0  0  0  0
   28.5220    8.8049   11.0532 O   0  0  0  0  0  0  0  0  0  0  0  0
   25.2822   18.4219    9.5704 C   0  0  2  0  0  0  0  0  0  0  0  0
   24.6122   19.8321    9.4253 C   0  0  1  0  0  0  0  0  0  0  0  0
   23.1952   19.6543    9.2105 C   0  0  1  0  0  0  0  0  0  0  0  0
   22.5863   18.8166   10.3189 O   0  0  0  0  0  0  0  0  0  0  0  0
   22.4657   21.0647    9.1011 C   0  0  0  0  0  0  0  0  0  0  0  0
   24.9173   18.2156   11.9537 N   0  0  0  0  0  0  0  0  0  0  0  0
   25.0550   19.2425    5.4245 O   0  0  0  0  0  0  0  0  0  0  0  0
   28.6232   10.1847   12.8547 C   0  0  0  0  0  0  0  0  0  0  0  0
   24.7701   20.4097   10.4046 O   0  0  0  0  0  0  0  0  0  0  0  0
   25.1052   17.8676    8.5781 O   0  0  0  0  0  0  0  0  0  0  0  0
   27.3690   11.0146   11.0275 C   0  0  0  0  0  0  0  0  0  0  0  0
   27.8328   10.5636   13.9167 C   0  0  0  0  0  0  0  0  0  0  0  0
   27.8267    9.7268   11.8898 C   0  0  1  0  0  0  0  0  0  0  0  0
   23.0082   17.7369    4.6216 F   0  0  0  0  0  0  0  0  0  0  0  0
  1  2  1  1  0  0  0
  1 10  1  0  0  0  0
  1  3  1  0  0  0  0
  3  4  1  1  0  0  0
  3  6  1  0  0  0  0
  5 46  2  0  0  0  0
  6 42  1  6  0  0  0
  6  8  1  0  0  0  0
  7 47  1  0  0  0  0
  8  9  1  0  0  0  0
  8 49  1  6  0  0  0
  9 10  1  0  0  0  0
  9 11  1  6  0  0  0
 11 12  1  0  0  0  0
 13 14  1  1  0  0  0
 13 15  1  0  0  0  0
 13 21  1  0  0  0  0
 14 46  1  0  0  0  0
 15 16  1  0  0  0  0
 16 17  1  1  0  0  0
 16 18  1  0  0  0  0
 18  2  1  6  0  0  0
 18 19  1  0  0  0  0
 19 20  1  1  0  0  0
 19 21  1  0  0  0  0
 21 22  1  6  0  0  0
 23 20  1  6  0  0  0
 23 24  1  0  0  0  0
 23 28  1  0  0  0  0
 24 25  1  6  0  0  0
 24 26  1  0  0  0  0
 26 27  1  0  0  0  0
 26 32  1  6  0  0  0
 27 28  1  0  0  0  0
 27 29  1  6  0  0  0
 29 30  1  0  0  0  0
 31 32  1  1  0  0  0
 31 33  1  0  0  0  0
 31 39  1  0  0  0  0
 33 36  1  0  0  0  0
 33 41  1  1  0  0  0
 34 40  1  0  0  0  0
 35 48  1  0  0  0  0
 36 37  1  0  0  0  0
 36 45  1  6  0  0  0
 37 38  1  0  0  0  0
 37 44  1  1  0  0  0
 38 39  1  0  0  0  0
 38 40  1  1  0  0  0
 43 47  1  0  0  0  0
 46 48  1  0  0  0  0
 48 43  1  1  0  0  0
M  END
>  <CHROM.1>
-170.59922047,82.59932340,178.11486009,66.33417120,-50.42848179,-137.21176107
-49.31792229,-151.17548482,-79.42268508,60.01879904,55.88192048,-154.20490364
-162.43371244,25.00056738,15.33004927,9.20293033,-2.33242321,-1.01115230
1.98265477

>  <Name>
ligand

>  <RI>
0

>  <Rbt.Current_Directory>
/home/itssahil/PROJECTS/Mol_Feturizer/New_Systems/rnas/4PDQ

>  <Rbt.Executable>
rbdock ($Id: //depot/dev/client3/rdock/2013.1/src/exe/rbdock.cxx#4 $)

>  <Rbt.Library>
libRbt.so (2013.1, Build901 2013/11/27)

>  <Rbt.Parameter_File>
/export/apps/rDock/src/rDock_2013.1_src/data/scripts/dock_solv.prm

>  <Rbt.Receptor>
prm/blind_docking_40.prm

>  <SCORE>
3.36217

>  <SCORE.INTER>
-0.722407

>  <SCORE.INTER.CONST>
1

>  <SCORE.INTER.POLAR>
0

>  <SCORE.INTER.ROT>
13

>  <SCORE.INTER.SOLV>
29.8106

>  <SCORE.INTER.VDW>
-22.6851

>  <SCORE.INTER.norm>
-0.014743

>  <SCORE.INTRA>
3.85674

>  <SCORE.INTRA.DIHEDRAL>
-16.5929

>  <SCORE.INTRA.DIHEDRAL.0>
34.5115

>  <SCORE.INTRA.POLAR>
0

>  <SCORE.INTRA.POLAR.0>
0

>  <SCORE.INTRA.REPUL>
0.458296

>  <SCORE.INTRA.REPUL.0>
0

>  <SCORE.INTRA.SOLV>
8.87106

>  <SCORE.INTRA.SOLV.lig_0>
-122.812

>  <SCORE.INTRA.VDW>
5.4262

>  <SCORE.INTRA.VDW.0>
-7.46208

>  <SCORE.INTRA.norm>
0.078709

>  <SCORE.RESTR>
0.227838

>  <SCORE.RESTR.CAVITY>
0.227838

>  <SCORE.RESTR.norm>
0.00464975

>  <SCORE.SYSTEM>
0

>  <SCORE.SYSTEM.CONST>
0

>  <SCORE.SYSTEM.DIHEDRAL>
0

>  <SCORE.SYSTEM.SOLV>
0

>  <SCORE.SYSTEM.norm>
0

>  <SCORE.heavy>
49

>  <SCORE.norm>
0.0686158

>  <RMSD>
10.350

$$$$
ligand
 OpenBabel11021811513D
libRbt.so/2013.1/901 2013/11/27
 49 52  0  0  0  0  0  0  0  0999 V2000
   25.2510   14.0197    6.5158 C   0  0  2  0  0  0  0  0  0  0  0  0
   26.1976   13.5949    7.4515 O   0  0  0  0  0  0  0  0  0  0  0  0
   25.9276   14.1586    5.1016 C   0  0  2  0  0  0  0  0  0  0  0  0
   26.5100   12.8145    4.6935 N   0  0  0  0  0  0  0  0  0  0  0  0
   24.5429    7.4298   10.0097 O   0  0  0  0  0  0  0  0  0  0  0  0
   27.0139   15.2591    5.1299 C   0  0  2  0  0  0  0  0  0  0  0  0
   27.4816    9.1004   12.9926 N   0  0  0  0  0  0  0  0  0  0  0  0
   26.4059   16.6021    5.5638 C   0  0  2  0  0  0  0  0  0  0  0  0
   25.7114   16.5007    6.9875 C   0  0  2  0  0  0  0  0  0  0  0  0
   24.6857   15.3673    6.9272 O   0  0  0  0  0  0  0  0  0  0  0  0
   25.0500   17.8489    7.3954 C   0  0  0  0  0  0  0  0  0  0  0  0
   25.9636   18.9309    7.4880 N   0  0  0  0  0  0  0  0  0  0  0  0
   25.8223   10.0428    9.9101 C   0  0  2  0  0  0  0  0  0  0  0  0
   25.8176    9.1801   11.1277 N   0  0  0  0  0  0  0  0  0  0  0  0
   27.1482   10.9449    9.9791 C   0  0  0  0  0  0  0  0  0  0  0  0
   27.2463   11.8741    8.7121 C   0  0  2  0  0  0  0  0  0  0  0  0
   28.4470   12.7205    8.7735 N   0  0  0  0  0  0  0  0  0  0  0  0
   26.0115   12.7934    8.6273 C   0  0  2  0  0  0  0  0  0  0  0  0
   24.6846   11.9342    8.5620 C   0  0  2  0  0  0  0  0  0  0  0  0
   23.5706   12.8990    8.4760 O   0  0  0  0  0  0  0  0  0  0  0  0
   24.5756   11.0409    9.9006 C   0  0  1  0  0  0  0  0  0  0  0  0
   23.3992   10.2992    9.8276 O   0  0  0  0  0  0  0  0  0  0  0  0
   23.2962   13.8443    9.3090 C   0  0  1  0  0  0  0  0  0  0  0  0
   22.7628   13.3862   10.6984 C   0  0  2  0  0  0  0  0  0  0  0  0
   21.3728   13.3288   10.6310 O   0  0  0  0  0  0  0  0  0  0  0  0
   23.2210   14.5343   11.4983 C   0  0  1  0  0  0  0  0  0  0  0  0
   24.6313   14.9551   10.9811 C   0  0  2  0  0  0  0  0  0  0  0  0
   24.4119   14.7451    9.6077 O   0  0  0  0  0  0  0  0  0  0  0  0
   25.8590   14.2980   11.6135 C   0  0  0  0  0  0  0  0  0  0  0  0
   25.4968   13.9795   12.9440 O   0  0  0  0  0  0  0  0  0  0  0  0
   22.6111   16.9090   11.3876 C   0  0  2  0  0  0  0  0  0  0  0  0
   22.1935   15.6110   11.3218 O   0  0  0  0  0  0  0  0  0  0  0  0
   22.4769   17.6124   10.0692 C   0  0  1  0  0  0  0  0  0  0  0  0
   27.0214   17.4886   11.7975 N   0  0  0  0  0  0  0  0  0  0  0  0
   24.4520    5.8338   12.3140 O   0  0  0  0  0  0  0  0  0  0  0  0
   23.0233   19.0866   10.2047 C   0  0  2  0  0  0  0  0  0  0  0  0
   24.5089   19.1642   10.7005 C   0  0  1  0  0  0  0  0  0  0  0  0
   24.6106   18.4900   11.9735 C   0  0  1  0  0  0  0  0  0  0  0  0
   24.0906   17.0688   11.8701 O   0  0  0  0  0  0  0  0  0  0  0  0
   26.1141   18.5059   12.4953 C   0  0  0  0  0  0  0  0  0  0  0  0
   23.2433   16.9507    9.0888 N   0  0  0  0  0  0  0  0  0  0  0  0
   27.4610   15.3687    4.0838 O   0  0  0  0  0  0  0  0  0  0  0  0
   26.4967    6.7788   12.6076 C   0  0  0  0  0  0  0  0  0  0  0  0
   25.1732   18.6210    9.9381 O   0  0  0  0  0  0  0  0  0  0  0  0
   22.3839   19.6349   10.9881 O   0  0  0  0  0  0  0  0  0  0  0  0
   25.1120    7.8610   11.0226 C   0  0  0  0  0  0  0  0  0  0  0  0
   27.0317    7.8045   13.3544 C   0  0  0  0  0  0  0  0  0  0  0  0
   25.2050    7.0408   12.4119 C   0  0  1  0  0  0  0  0  0  0  0  0
   25.4363   17.0123    4.6317 F   0  0  0  0  0  0  0  0  0  0  0  0
  1  2  1  1  0  0  0
  1 10  1  0  0  0  0
  1  3  1  0  0  0  0
  3  4  1  1  0  0  0
  3  6  1  0  0  0  0
  5 46  2  0  0  0  0
  6 42  1  6  0  0  0
  6  8  1  0  0  0  0
  7 47  1  0  0  0  0
  8  9  1  0  0  0  0
  8 49  1  6  0  0  0
  9 10  1  0  0  0  0
  9 11  1  6  0  0  0
 11 12  1  0  0  0  0
 13 14  1  1  0  0  0
 13 15  1  0  0  0  0
 13 21  1  0  0  0  0
 14 46  1  0  0  0  0
 15 16  1  0  0  0  0
 16 17  1  1  0  0  0
 16 18  1  0  0  0  0
 18  2  1  6  0  0  0
 18 19  1  0  0  0  0
 19 20  1  1  0  0  0
 19 21  1  0  0  0  0
 21 22  1  6  0  0  0
 23 20  1  6  0  0  0
 23 24  1  0  0  0  0
 23 28  1  0  0  0  0
 24 25  1  6  0  0  0
 24 26  1  0  0  0  0
 26 27  1  0  0  0  0
 26 32  1  6  0  0  0
 27 28  1  0  0  0  0
 27 29  1  1  0  0  0
 29 30  1  0  0  0  0
 31 32  1  6  0  0  0
 31 33  1  0  0  0  0
 31 39  1  0  0  0  0
 33 36  1  0  0  0  0
 33 41  1  6  0  0  0
 34 40  1  0  0  0  0
 35 48  1  0  0  0  0
 36 37  1  0  0  0  0
 36 45  1  1  0  0  0
 37 38  1  0  0  0  0
 37 44  1  6  0  0  0
 38 39  1  0  0  0  0
 38 40  1  6  0  0  0
 43 47  1  0  0  0  0
 46 48  1  0  0  0  0
 48 43  1  6  0  0  0
M  END
>  <CHROM.1>
-149.34452283,141.96562018,-60.46989073,-152.10918812,-57.20735069,-69.93747861
-149.50728260,-29.52007576,113.43476879,-77.08858693,-80.61344321,-149.12447860
-4.78182901,25.02331577,13.92449033,9.56322280,-1.81541891,-1.18485964,2.64332508

>  <Name>
ligand

>  <RI>
0

>  <Rbt.Current_Directory>
/home/itssahil/PROJECTS/Mol_Feturizer/New_Systems/rnas/4PDQ

>  <Rbt.Executable>
rbdock ($Id: //depot/dev/client3/rdock/2013.1/src/exe/rbdock.cxx#4 $)

>  <Rbt.Library>
libRbt.so (2013.1, Build901 2013/11/27)

>  <Rbt.Parameter_File>
/export/apps/rDock/src/rDock_2013.1_src/data/scripts/dock_solv.prm

>  <Rbt.Receptor>
prm/blind_docking_100.prm

>  <SCORE>
20.2811

>  <SCORE.INTER>
3.6635

>  <SCORE.INTER.CONST>
1

>  <SCORE.INTER.POLAR>
0

>  <SCORE.INTER.ROT>
13

>  <SCORE.INTER.SOLV>
29.9728

>  <SCORE.INTER.VDW>
-19.8153

>  <SCORE.INTER.norm>
0.0747654

>  <SCORE.INTRA>
14.8346

>  <SCORE.INTRA.DIHEDRAL>
-5.32186

>  <SCORE.INTRA.DIHEDRAL.0>
34.5115

>  <SCORE.INTRA.POLAR>
0

>  <SCORE.INTRA.POLAR.0>
0

>  <SCORE.INTRA.REPUL>
0.42412

>  <SCORE.INTRA.REPUL.0>
0

>  <SCORE.INTRA.SOLV>
13.5807

>  <SCORE.INTRA.SOLV.lig_0>
-122.812

>  <SCORE.INTRA.VDW>
8.58462

>  <SCORE.INTRA.VDW.0>
-7.46208

>  <SCORE.INTRA.norm>
0.302748

>  <SCORE.RESTR>
1.78294

>  <SCORE.RESTR.CAVITY>
1.78294

>  <SCORE.RESTR.norm>
0.0363864

>  <SCORE.SYSTEM>
0

>  <SCORE.SYSTEM.CONST>
0

>  <SCORE.SYSTEM.DIHEDRAL>
0

>  <SCORE.SYSTEM.SOLV>
0

>  <SCORE.SYSTEM.norm>
0

>  <SCORE.heavy>
49

>  <SCORE.norm>
0.413899

>  <RMSD>
10.353

$$$$
ligand
 OpenBabel11021811513D
libRbt.so/2013.1/901 2013/11/27
 49 52  0  0  0  0  0  0  0  0999 V2000
   23.8871   14.0476   10.2304 C   0  0  2  0  0  0  0  0  0  0  0  0
   24.7272   13.3046    9.3972 O   0  0  0  0  0  0  0  0  0  0  0  0
   23.3210   15.2878    9.4438 C   0  0  2  0  0  0  0  0  0  0  0  0
   22.5582   14.7979    8.2230 N   0  0  0  0  0  0  0  0  0  0  0  0
   28.2790    8.7383    9.9943 O   0  0  0  0  0  0  0  0  0  0  0  0
   24.4700   16.2432    9.0453 C   0  0  2  0  0  0  0  0  0  0  0  0
   29.3645    3.8988   11.3394 N   0  0  0  0  0  0  0  0  0  0  0  0
   25.2377   16.7086   10.2926 C   0  0  2  0  0  0  0  0  0  0  0  0
   25.8231   15.4831   11.1142 C   0  0  2  0  0  0  0  0  0  0  0  0
   24.6621   14.5412   11.4389 O   0  0  0  0  0  0  0  0  0  0  0  0
   26.5511   15.9588   12.4047 C   0  0  0  0  0  0  0  0  0  0  0  0
   26.9468   14.9003   13.2631 N   0  0  0  0  0  0  0  0  0  0  0  0
   26.1420    9.8614   11.6211 C   0  0  2  0  0  0  0  0  0  0  0  0
   26.7651    8.5329   11.8928 N   0  0  0  0  0  0  0  0  0  0  0  0
   25.1635    9.6725   10.3628 C   0  0  0  0  0  0  0  0  0  0  0  0
   24.4412   11.0288   10.0209 C   0  0  2  0  0  0  0  0  0  0  0  0
   23.5568   10.8735    8.8566 N   0  0  0  0  0  0  0  0  0  0  0  0
   25.4806   12.1200    9.6955 C   0  0  2  0  0  0  0  0  0  0  0  0
   26.4653   12.3286   10.9160 C   0  0  2  0  0  0  0  0  0  0  0  0
   27.4085   13.3895   10.5103 O   0  0  0  0  0  0  0  0  0  0  0  0
   27.2399   10.9434   11.2035 C   0  0  1  0  0  0  0  0  0  0  0  0
   28.1062   11.1496   12.2743 O   0  0  0  0  0  0  0  0  0  0  0  0
   27.9576   13.5391    9.3532 C   0  0  1  0  0  0  0  0  0  0  0  0
   29.3995   14.1267    9.3609 C   0  0  2  0  0  0  0  0  0  0  0  0
   29.3028   15.5125    9.2600 O   0  0  0  0  0  0  0  0  0  0  0  0
   29.8885   13.5236    8.1098 C   0  0  1  0  0  0  0  0  0  0  0  0
   29.3274   12.0709    8.0187 C   0  0  2  0  0  0  0  0  0  0  0  0
   28.0492   12.3161    8.5521 O   0  0  0  0  0  0  0  0  0  0  0  0
   30.1496   10.9383    8.6351 C   0  0  0  0  0  0  0  0  0  0  0  0
   31.5022   11.2173    8.3265 O   0  0  0  0  0  0  0  0  0  0  0  0
   28.0804   14.7370    6.9778 C   0  0  2  0  0  0  0  0  0  0  0  0
   29.4039   14.4034    6.9975 O   0  0  0  0  0  0  0  0  0  0  0  0
   27.2682   13.7753    6.1613 C   0  0  1  0  0  0  0  0  0  0  0  0
   24.7741   18.6015    5.7661 N   0  0  0  0  0  0  0  0  0  0  0  0
   28.3261    6.4801   12.8042 O   0  0  0  0  0  0  0  0  0  0  0  0
   25.7630   14.2485    6.1398 C   0  0  2  0  0  0  0  0  0  0  0  0
   25.5690   15.7057    5.5942 C   0  0  1  0  0  0  0  0  0  0  0  0
   26.3513   16.6128    6.4008 C   0  0  1  0  0  0  0  0  0  0  0  0
   27.8045   16.1792    6.4381 O   0  0  0  0  0  0  0  0  0  0  0  0
   26.2189   18.1018    5.8545 C   0  0  0  0  0  0  0  0  0  0  0  0
   27.7383   13.7530    4.8328 N   0  0  0  0  0  0  0  0  0  0  0  0
   24.0301   17.1537    8.5126 O   0  0  0  0  0  0  0  0  0  0  0  0
   27.6971    5.7379   10.7516 C   0  0  0  0  0  0  0  0  0  0  0  0
   25.9552   15.7415    4.5139 O   0  0  0  0  0  0  0  0  0  0  0  0
   25.3710   14.2451    7.2213 O   0  0  0  0  0  0  0  0  0  0  0  0
   27.8534    8.0900   10.9610 C   0  0  0  0  0  0  0  0  0  0  0  0
   28.4915    4.6410   10.5030 C   0  0  0  0  0  0  0  0  0  0  0  0
   28.4339    6.6448   11.3919 C   0  0  1  0  0  0  0  0  0  0  0  0
   24.3811   17.4343   11.1392 F   0  0  0  0  0  0  0  0  0  0  0  0
  1  2  1  6  0  0  0
  1 10  1  0  0  0  0
  1  3  1  0  0  0  0
  3  4  1  6  0  0  0
  3  6  1  0  0  0  0
  5 46  2  0  0  0  0
  6 42  1  1  0  0  0
  6  8  1  0  0  0  0
  7 47  1  0  0  0  0
  8  9  1  0  0  0  0
  8 49  1  1  0  0  0
  9 10  1  0  0  0  0
  9 11  1  1  0  0  0
 11 12  1  0  0  0  0
 13 14  1  6  0  0  0
 13 15  1  0  0  0  0
 13 21  1  0  0  0  0
 14 46  1  0  0  0  0
 15 16  1  0  0  0  0
 16 17  1  6  0  0  0
 16 18  1  0  0  0  0
 18  2  1  1  0  0  0
 18 19  1  0  0  0  0
 19 20  1  6  0  0  0
 19 21  1  0  0  0  0
 21 22  1  1  0  0  0
 23 20  1  1  0  0  0
 23 24  1  0  0  0  0
 23 28  1  0  0  0  0
 24 25  1  6  0  0  0
 24 26  1  0  0  0  0
 26 27  1  0  0  0  0
 26 32  1  6  0  0  0
 27 28  1  0  0  0  0
 27 29  1  1  0  0  0
 29 30  1  0  0  0  0
 31 32  1  6  0  0  0
 31 33  1  0  0  0  0
 31 39  1  0  0  0  0
 33 36  1  0  0  0  0
 33 41  1  6  0  0  0
 34 40  1  0  0  0  0
 35 48  1  0  0  0  0
 36 37  1  0  0  0  0
 36 45  1  1  0  0  0
 37 38  1  0  0  0  0
 37 44  1  6  0  0  0
 38 39  1  0  0  0  0
 38 40  1  6  0  0  0
 43 47  1  0  0  0  0
 46 48  1  0  0  0  0
 48 43  1  6  0  0  0
M  END
>  <CHROM.1>
178.44355651,63.95780427,172.47622871,75.60744954,-40.74261914,-146.55258131
-50.25164119,-40.10610848,-91.87402187,55.92216713,48.12975193,-91.30402087
148.87519335,26.77915825,12.88561486,9.23222007,1.92843833,0.74799241,-0.61535591

>  <Name>
ligand

>  <RI>
0

>  <Rbt.Current_Directory>
/home/itssahil/PROJECTS/Mol_Feturizer/New_Systems/rnas/4PDQ

>  <Rbt.Executable>
rbdock ($Id: //depot/dev/client3/rdock/2013.1/src/exe/rbdock.cxx#4 $)

>  <Rbt.Library>
libRbt.so (2013.1, Build901 2013/11/27)

>  <Rbt.Parameter_File>
/export/apps/rDock/src/rDock_2013.1_src/data/scripts/dock_solv.prm

>  <Rbt.Receptor>
prm/blind_docking_100.prm

>  <SCORE>
4.95028

>  <SCORE.INTER>
-2.51595

>  <SCORE.INTER.CONST>
1

>  <SCORE.INTER.POLAR>
0

>  <SCORE.INTER.ROT>
13

>  <SCORE.INTER.SOLV>
26.8651

>  <SCORE.INTER.VDW>
-22.899

>  <SCORE.INTER.norm>
-0.0513459

>  <SCORE.INTRA>
3.80366

>  <SCORE.INTRA.DIHEDRAL>
-17.4507

>  <SCORE.INTRA.DIHEDRAL.0>
34.5115

>  <SCORE.INTRA.POLAR>
0

>  <SCORE.INTRA.POLAR.0>
0

>  <SCORE.INTRA.REPUL>
1

>  <SCORE.INTRA.REPUL.0>
0

>  <SCORE.INTRA.SOLV>
7.28961

>  <SCORE.INTRA.SOLV.lig_0>
-122.812

>  <SCORE.INTRA.VDW>
3.88421

>  <SCORE.INTRA.VDW.0>
-7.46208

>  <SCORE.INTRA.norm>
0.0776258

>  <SCORE.RESTR>
3.66257

>  <SCORE.RESTR.CAVITY>
3.66257

>  <SCORE.RESTR.norm>
0.0747462

>  <SCORE.SYSTEM>
0

>  <SCORE.SYSTEM.CONST>
0

>  <SCORE.SYSTEM.DIHEDRAL>
0

>  <SCORE.SYSTEM.SOLV>
0

>  <SCORE.SYSTEM.norm>
0

>  <SCORE.heavy>
49

>  <SCORE.norm>
0.101026

>  <RMSD>
10.355

$$$$
ligand
 OpenBabel11021811513D
libRbt.so/2013.1/901 2013/11/27
 49 52  0  0  0  0  0  0  0  0999 V2000
   25.4429   13.5590    6.3917 C   0  0  2  0  0  0  0  0  0  0  0  0
   26.4663   12.8945    7.0722 O   0  0  0  0  0  0  0  0  0  0  0  0
   25.9617   14.0314    4.9829 C   0  0  2  0  0  0  0  0  0  0  0  0
   26.4252   12.8193    4.1902 N   0  0  0  0  0  0  0  0  0  0  0  0
   26.5763   11.4458   12.6471 O   0  0  0  0  0  0  0  0  0  0  0  0
   27.0988   15.0668    5.1470 C   0  0  2  0  0  0  0  0  0  0  0  0
   25.2075   11.6217   14.9699 N   0  0  0  0  0  0  0  0  0  0  0  0
   26.6127   16.2720    5.9673 C   0  0  2  0  0  0  0  0  0  0  0  0
   26.0792   15.8339    7.3966 C   0  0  2  0  0  0  0  0  0  0  0  0
   24.9969   14.7733    7.1862 O   0  0  0  0  0  0  0  0  0  0  0  0
   25.5374   17.0518    8.1997 C   0  0  0  0  0  0  0  0  0  0  0  0
   24.9530   18.0592    7.3888 N   0  0  0  0  0  0  0  0  0  0  0  0
   26.6776    9.8881   10.1899 C   0  0  2  0  0  0  0  0  0  0  0  0
   26.8591    9.2908   11.5453 N   0  0  0  0  0  0  0  0  0  0  0  0
   27.8931   10.9112    9.9611 C   0  0  0  0  0  0  0  0  0  0  0  0
   27.7928   11.5726    8.5361 C   0  0  2  0  0  0  0  0  0  0  0  0
   28.8902   12.5275    8.3222 N   0  0  0  0  0  0  0  0  0  0  0  0
   26.4581   12.3307    8.3920 C   0  0  2  0  0  0  0  0  0  0  0  0
   25.2370   11.3501    8.6163 C   0  0  2  0  0  0  0  0  0  0  0  0
   24.0166   12.1641    8.4510 O   0  0  0  0  0  0  0  0  0  0  0  0
   25.3275   10.7370   10.1054 C   0  0  1  0  0  0  0  0  0  0  0  0
   24.2414    9.8841   10.2857 O   0  0  0  0  0  0  0  0  0  0  0  0
   23.6518   13.1709    9.1695 C   0  0  1  0  0  0  0  0  0  0  0  0
   23.1440   12.8300   10.6014 C   0  0  2  0  0  0  0  0  0  0  0  0
   21.7651   12.6441   10.5388 O   0  0  0  0  0  0  0  0  0  0  0  0
   23.4919   14.0976   11.2648 C   0  0  1  0  0  0  0  0  0  0  0  0
   24.8664   14.5779   10.7050 C   0  0  2  0  0  0  0  0  0  0  0  0
   24.6819   14.1939    9.3645 O   0  0  0  0  0  0  0  0  0  0  0  0
   26.1389   14.1071   11.4106 C   0  0  0  0  0  0  0  0  0  0  0  0
   27.2221   14.5968   10.6428 O   0  0  0  0  0  0  0  0  0  0  0  0
   22.5724   16.3730   11.2530 C   0  0  2  0  0  0  0  0  0  0  0  0
   22.3772   15.0532   10.9641 O   0  0  0  0  0  0  0  0  0  0  0  0
   22.1953   17.2634   10.1057 C   0  0  1  0  0  0  0  0  0  0  0  0
   26.8356   17.6285   11.5260 N   0  0  0  0  0  0  0  0  0  0  0  0
   27.9503    8.3943   13.9388 O   0  0  0  0  0  0  0  0  0  0  0  0
   22.4936   18.7649   10.4888 C   0  0  2  0  0  0  0  0  0  0  0  0
   23.9848   19.0260   10.8972 C   0  0  1  0  0  0  0  0  0  0  0  0
   24.3207   18.1660   12.0077 C   0  0  1  0  0  0  0  0  0  0  0  0
   24.0424   16.7148   11.6646 O   0  0  0  0  0  0  0  0  0  0  0  0
   25.8425   18.3662   12.4285 C   0  0  0  0  0  0  0  0  0  0  0  0
   22.9659   16.9407    8.9706 N   0  0  0  0  0  0  0  0  0  0  0  0
   27.4299   15.4241    4.1130 O   0  0  0  0  0  0  0  0  0  0  0  0
   27.4076   10.3304   14.9957 C   0  0  0  0  0  0  0  0  0  0  0  0
   24.6558   18.7600   10.0048 O   0  0  0  0  0  0  0  0  0  0  0  0
   21.8480   19.0367   11.4013 O   0  0  0  0  0  0  0  0  0  0  0  0
   26.7836   10.2259   12.7152 C   0  0  0  0  0  0  0  0  0  0  0  0
   26.3010   10.9310   15.5531 C   0  0  0  0  0  0  0  0  0  0  0  0
   26.9859    9.4310   14.1076 C   0  0  1  0  0  0  0  0  0  0  0  0
   25.5662   16.9220    5.2894 F   0  0  0  0  0  0  0  0  0  0  0  0
  1  2  1  1  0  0  0
  1 10  1  0  0  0  0
  1  3  1  0  0  0  0
  3  4  1  6  0  0  0
  3  6  1  0  0  0  0
  5 46  2  0  0  0  0
  6 42  1  6  0  0  0
  6  8  1  0  0  0  0
  7 47  1  0  0  0  0
  8  9  1  0  0  0  0
  8 49  1  6  0  0  0
  9 10  1  0  0  0  0
  9 11  1  6  0  0  0
 11 12  1  0  0  0  0
 13 14  1  1  0  0  0
 13 15  1  0  0  0  0
 13 21  1  0  0  0  0
 14 46  1  0  0  0  0
 15 16  1  0  0  0  0
 16 17  1  1  0  0  0
 16 18  1  0  0  0  0
 18  2  1  6  0  0  0
 18 19  1  0  0  0  0
 19 20  1  1  0  0  0
 19 21  1  0  0  0  0
 21 22  1  6  0  0  0
 23 20  1  1  0  0  0
 23 24  1  0  0  0  0
 23 28  1  0  0  0  0
 24 25  1  6  0  0  0
 24 26  1  0  0  0  0
 26 27  1  0  0  0  0
 26 32  1  6  0  0  0
 27 28  1  0  0  0  0
 27 29  1  1  0  0  0
 29 30  1  0  0  0  0
 31 32  1  6  0  0  0
 31 33  1  0  0  0  0
 31 39  1  0  0  0  0
 33 36  1  0  0  0  0
 33 41  1  6  0  0  0
 34 40  1  0  0  0  0
 35 48  1  0  0  0  0
 36 37  1  0  0  0  0
 36 45  1  1  0  0  0
 37 38  1  0  0  0  0
 37 44  1  6  0  0  0
 38 39  1  0  0  0  0
 38 40  1  6  0  0  0
 43 47  1  0  0  0  0
 46 48  1  0  0  0  0
 48 43  1  1  0  0  0
M  END
>  <CHROM.1>
178.11193169,172.88349440,32.28226368,63.48708444,-62.37507892,-72.60067366
-167.97870130,175.50015737,131.51508108,-79.43982731,-56.13956386,-153.95376395
-144.02767634,25.34050590,14.06669675,9.81404587,-2.10287399,-1.10889242
2.09066535

>  <Name>
ligand

>  <RI>
0

>  <Rbt.Current_Directory>
/home/itssahil/PROJECTS/Mol_Feturizer/New_Systems/rnas/4PDQ

>  <Rbt.Executable>
rbdock ($Id: //depot/dev/client3/rdock/2013.1/src/exe/rbdock.cxx#4 $)

>  <Rbt.Library>
libRbt.so (2013.1, Build901 2013/11/27)

>  <Rbt.Parameter_File>
/export/apps/rDock/src/rDock_2013.1_src/data/scripts/dock_solv.prm

>  <Rbt.Receptor>
prm/blind_docking_80.prm

>  <SCORE>
17.7465

>  <SCORE.INTER>
5.37199

>  <SCORE.INTER.CONST>
1

>  <SCORE.INTER.POLAR>
0

>  <SCORE.INTER.ROT>
13

>  <SCORE.INTER.SOLV>
28.5789

>  <SCORE.INTER.VDW>
-18.2116

>  <SCORE.INTER.norm>
0.109632

>  <SCORE.INTRA>
8.55636

>  <SCORE.INTRA.DIHEDRAL>
-19.0455

>  <SCORE.INTRA.DIHEDRAL.0>
34.5115

>  <SCORE.INTRA.POLAR>
0

>  <SCORE.INTRA.POLAR.0>
0

>  <SCORE.INTRA.REPUL>
0.729261

>  <SCORE.INTRA.REPUL.0>
0

>  <SCORE.INTRA.SOLV>
15.0781

>  <SCORE.INTRA.SOLV.lig_0>
-122.812

>  <SCORE.INTRA.VDW>
6.89371

>  <SCORE.INTRA.VDW.0>
-7.46208

>  <SCORE.INTRA.norm>
0.17462

>  <SCORE.RESTR>
3.81812

>  <SCORE.RESTR.CAVITY>
3.81812

>  <SCORE.RESTR.norm>
0.0779208

>  <SCORE.SYSTEM>
0

>  <SCORE.SYSTEM.CONST>
0

>  <SCORE.SYSTEM.DIHEDRAL>
0

>  <SCORE.SYSTEM.SOLV>
0

>  <SCORE.SYSTEM.norm>
0

>  <SCORE.heavy>
49

>  <SCORE.norm>
0.362173

>  <RMSD>
10.355

$$$$
ligand
 OpenBabel11021811513D
libRbt.so/2013.1/901 2013/11/27
 49 52  0  0  0  0  0  0  0  0999 V2000
   25.6983   13.4163    7.5906 C   0  0  2  0  0  0  0  0  0  0  0  0
   26.0669   12.1066    7.9081 O   0  0  0  0  0  0  0  0  0  0  0  0
   25.4672   13.5414    6.0388 C   0  0  2  0  0  0  0  0  0  0  0  0
   24.3783   12.5674    5.6169 N   0  0  0  0  0  0  0  0  0  0  0  0
   26.9547   10.5001   13.4109 O   0  0  0  0  0  0  0  0  0  0  0  0
   26.7861   13.2790    5.2749 C   0  0  2  0  0  0  0  0  0  0  0  0
   29.8118   11.3451   15.6932 N   0  0  0  0  0  0  0  0  0  0  0  0
   27.8756   14.2615    5.7322 C   0  0  2  0  0  0  0  0  0  0  0  0
   28.1357   14.1656    7.2952 C   0  0  2  0  0  0  0  0  0  0  0  0
   26.7974   14.3779    8.0053 O   0  0  0  0  0  0  0  0  0  0  0  0
   29.1999   15.2016    7.7597 C   0  0  0  0  0  0  0  0  0  0  0  0
   29.8242   14.8699    8.9902 N   0  0  0  0  0  0  0  0  0  0  0  0
   26.9656    9.0732   10.8735 C   0  0  2  0  0  0  0  0  0  0  0  0
   27.4288    8.4660   12.1556 N   0  0  0  0  0  0  0  0  0  0  0  0
   28.0878   10.1279   10.4212 C   0  0  0  0  0  0  0  0  0  0  0  0
   27.6889   10.8018    9.0556 C   0  0  2  0  0  0  0  0  0  0  0  0
   28.6999   11.7855    8.6405 N   0  0  0  0  0  0  0  0  0  0  0  0
   26.3363   11.5287    9.1939 C   0  0  2  0  0  0  0  0  0  0  0  0
   25.2068   10.5163    9.6436 C   0  0  2  0  0  0  0  0  0  0  0  0
   23.9607   11.3021    9.7390 O   0  0  0  0  0  0  0  0  0  0  0  0
   25.6080    9.8898   11.0746 C   0  0  1  0  0  0  0  0  0  0  0  0
   24.5990    9.0088   11.4561 O   0  0  0  0  0  0  0  0  0  0  0  0
   23.8545   12.5603   10.0009 C   0  0  1  0  0  0  0  0  0  0  0  0
   22.6591   12.9613   10.9146 C   0  0  2  0  0  0  0  0  0  0  0  0
   21.5696   13.2546   10.0981 O   0  0  0  0  0  0  0  0  0  0  0  0
   23.2363   14.1786   11.5087 C   0  0  1  0  0  0  0  0  0  0  0  0
   24.7492   13.9154   11.7830 C   0  0  2  0  0  0  0  0  0  0  0  0
   25.0331   13.1599   10.6310 O   0  0  0  0  0  0  0  0  0  0  0  0
   25.1465   13.3245   13.1364 C   0  0  0  0  0  0  0  0  0  0  0  0
   26.5609   13.2796   13.1494 O   0  0  0  0  0  0  0  0  0  0  0  0
   23.3838   16.5452   10.8754 C   0  0  2  0  0  0  0  0  0  0  0  0
   23.0094   15.2815   10.5196 O   0  0  0  0  0  0  0  0  0  0  0  0
   23.2378   17.5171    9.7418 C   0  0  1  0  0  0  0  0  0  0  0  0
   27.0515   16.9164   13.4540 N   0  0  0  0  0  0  0  0  0  0  0  0
   27.9412    7.1342   14.4054 O   0  0  0  0  0  0  0  0  0  0  0  0
   23.7346   18.9411   10.2062 C   0  0  2  0  0  0  0  0  0  0  0  0
   25.2127   18.9522   10.7296 C   0  0  1  0  0  0  0  0  0  0  0  0
   25.3257   18.0178   11.8248 C   0  0  1  0  0  0  0  0  0  0  0  0
   24.8532   16.6392   11.4038 O   0  0  0  0  0  0  0  0  0  0  0  0
   26.8235   17.9637   12.3603 C   0  0  0  0  0  0  0  0  0  0  0  0
   24.0335   17.1106    8.6518 N   0  0  0  0  0  0  0  0  0  0  0  0
   26.6019   13.4156    4.1552 O   0  0  0  0  0  0  0  0  0  0  0  0
   29.0998    9.0088   14.9562 C   0  0  0  0  0  0  0  0  0  0  0  0
   25.9006   18.6103    9.8767 O   0  0  0  0  0  0  0  0  0  0  0  0
   23.0711   19.2841   11.0810 O   0  0  0  0  0  0  0  0  0  0  0  0
   27.3654    9.3314   13.3787 C   0  0  0  0  0  0  0  0  0  0  0  0
   28.9489   10.2242   15.5857 C   0  0  0  0  0  0  0  0  0  0  0  0
   27.8861    8.5318   14.6830 C   0  0  1  0  0  0  0  0  0  0  0  0
   27.4881   15.5797    5.4328 F   0  0  0  0  0  0  0  0  0  0  0  0
  1  2  1  6  0  0  0
  1 10  1  0  0  0  0
  1  3  1  0  0  0  0
  3  4  1  6  0  0  0
  3  6  1  0  0  0  0
  5 46  2  0  0  0  0
  6 42  1  6  0  0  0
  6  8  1  0  0  0  0
  7 47  1  0  0  0  0
  8  9  1  0  0  0  0
  8 49  1  1  0  0  0
  9 10  1  0  0  0  0
  9 11  1  1  0  0  0
 11 12  1  0  0  0  0
 13 14  1  1  0  0  0
 13 15  1  0  0  0  0
 13 21  1  0  0  0  0
 14 46  1  0  0  0  0
 15 16  1  0  0  0  0
 16 17  1  1  0  0  0
 16 18  1  0  0  0  0
 18  2  1  6  0  0  0
 18 19  1  0  0  0  0
 19 20  1  1  0  0  0
 19 21  1  0  0  0  0
 21 22  1  6  0  0  0
 23 20  1  1  0  0  0
 23 24  1  0  0  0  0
 23 28  1  0  0  0  0
 24 25  1  6  0  0  0
 24 26  1  0  0  0  0
 26 27  1  0  0  0  0
 26 32  1  6  0  0  0
 27 28  1  0  0  0  0
 27 29  1  1  0  0  0
 29 30  1  0  0  0  0
 31 32  1  6  0  0  0
 31 33  1  0  0  0  0
 31 39  1  0  0  0  0
 33 36  1  0  0  0  0
 33 41  1  6  0  0  0
 34 40  1  0  0  0  0
 35 48  1  0  0  0  0
 36 37  1  0  0  0  0
 36 45  1  1  0  0  0
 37 38  1  0  0  0  0
 37 44  1  6  0  0  0
 38 39  1  0  0  0  0
 38 40  1  6  0  0  0
 43 47  1  0  0  0  0
 46 48  1  0  0  0  0
 48 43  1  6  0  0  0
M  END
>  <CHROM.1>
-177.98498098,-130.03681908,-158.51256499,72.79098983,-28.01871134,-141.35507793
175.96682136,-176.02649573,173.79542942,-175.60513869,-155.58346474,-162.62717201
164.21763611,26.01814476,13.36310187,10.30673744,-2.46072987,-1.20007472
1.74759633

>  <Name>
ligand

>  <RI>
0

>  <Rbt.Current_Directory>
/home/itssahil/PROJECTS/Mol_Feturizer/New_Systems/rnas/4PDQ

>  <Rbt.Executable>
rbdock ($Id: //depot/dev/client3/rdock/2013.1/src/exe/rbdock.cxx#4 $)

>  <Rbt.Library>
libRbt.so (2013.1, Build901 2013/11/27)

>  <Rbt.Parameter_File>
/export/apps/rDock/src/rDock_2013.1_src/data/scripts/dock_solv.prm

>  <Rbt.Receptor>
prm/blind_docking_80.prm

>  <SCORE>
6.15743

>  <SCORE.INTER>
1.36245

>  <SCORE.INTER.CONST>
1

>  <SCORE.INTER.POLAR>
0

>  <SCORE.INTER.ROT>
13

>  <SCORE.INTER.SOLV>
32.8495

>  <SCORE.INTER.VDW>
-22.3082

>  <SCORE.INTER.norm>
0.027805

>  <SCORE.INTRA>
0.50594

>  <SCORE.INTRA.DIHEDRAL>
-11.4143

>  <SCORE.INTRA.DIHEDRAL.0>
34.5115

>  <SCORE.INTRA.POLAR>
0

>  <SCORE.INTRA.POLAR.0>
0

>  <SCORE.INTRA.REPUL>
0.165397

>  <SCORE.INTRA.REPUL.0>
0

>  <SCORE.INTRA.SOLV>
3.02501

>  <SCORE.INTRA.SOLV.lig_0>
-122.812

>  <SCORE.INTRA.VDW>
3.87362

>  <SCORE.INTRA.VDW.0>
-7.46208

>  <SCORE.INTRA.norm>
0.0103253

>  <SCORE.RESTR>
4.28904

>  <SCORE.RESTR.CAVITY>
4.28904

>  <SCORE.RESTR.norm>
0.0875315

>  <SCORE.SYSTEM>
0

>  <SCORE.SYSTEM.CONST>
0

>  <SCORE.SYSTEM.DIHEDRAL>
0

>  <SCORE.SYSTEM.SOLV>
0

>  <SCORE.SYSTEM.norm>
0

>  <SCORE.heavy>
49

>  <SCORE.norm>
0.125662

>  <RMSD>
10.366

$$$$
ligand
 OpenBabel11021811513D
libRbt.so/2013.1/901 2013/11/27
 49 52  0  0  0  0  0  0  0  0999 V2000
   29.8194   11.1432    5.2122 C   0  0  2  0  0  0  0  0  0  0  0  0
   28.8492   10.4314    4.5023 O   0  0  0  0  0  0  0  0  0  0  0  0
   31.0763   11.3854    4.2964 C   0  0  2  0  0  0  0  0  0  0  0  0
   30.6498   12.1602    3.0594 N   0  0  0  0  0  0  0  0  0  0  0  0
   23.9087    9.1560   -0.0439 O   0  0  0  0  0  0  0  0  0  0  0  0
   31.7355   10.0382    3.9190 C   0  0  2  0  0  0  0  0  0  0  0  0
   20.9522    9.9752   -4.1057 N   0  0  0  0  0  0  0  0  0  0  0  0
   32.1393    9.2654    5.1844 C   0  0  2  0  0  0  0  0  0  0  0  0
   30.8958    9.0034    6.1355 C   0  0  2  0  0  0  0  0  0  0  0  0
   30.2459   10.3550    6.4376 O   0  0  0  0  0  0  0  0  0  0  0  0
   31.3218    8.2698    7.4401 C   0  0  0  0  0  0  0  0  0  0  0  0
   31.6505    6.9027    7.2479 N   0  0  0  0  0  0  0  0  0  0  0  0
   25.7815   10.8009    1.4601 C   0  0  2  0  0  0  0  0  0  0  0  0
   25.0858   11.2724    0.2268 N   0  0  0  0  0  0  0  0  0  0  0  0
   26.3512   12.1037    2.2048 C   0  0  0  0  0  0  0  0  0  0  0  0
   27.0838   11.6974    3.5377 C   0  0  2  0  0  0  0  0  0  0  0  0
   27.6281   12.8811    4.2193 N   0  0  0  0  0  0  0  0  0  0  0  0
   28.2502   10.7361    3.2342 C   0  0  2  0  0  0  0  0  0  0  0  0
   27.7226    9.4407    2.4949 C   0  0  2  0  0  0  0  0  0  0  0  0
   28.9047    8.5888    2.2579 O   0  0  0  0  0  0  0  0  0  0  0  0
   27.0353    9.8785    1.1029 C   0  0  1  0  0  0  0  0  0  0  0  0
   26.5851    8.7255    0.4646 O   0  0  0  0  0  0  0  0  0  0  0  0
   29.9201    8.8604    1.5109 C   0  0  1  0  0  0  0  0  0  0  0  0
   29.9432    8.1583    0.1213 C   0  0  2  0  0  0  0  0  0  0  0  0
   30.6309    6.9546    0.2558 O   0  0  0  0  0  0  0  0  0  0  0  0
   30.7351    9.1572   -0.6157 C   0  0  1  0  0  0  0  0  0  0  0  0
   30.2902   10.5755   -0.1426 C   0  0  2  0  0  0  0  0  0  0  0  0
   30.1086   10.2839    1.2214 O   0  0  0  0  0  0  0  0  0  0  0  0
   29.1384   11.2565   -0.8834 C   0  0  0  0  0  0  0  0  0  0  0  0
   29.4678   11.2071   -2.2588 O   0  0  0  0  0  0  0  0  0  0  0  0
   33.0999    9.8132   -0.6431 C   0  0  2  0  0  0  0  0  0  0  0  0
   32.1733    8.8681   -0.3088 O   0  0  0  0  0  0  0  0  0  0  0  0
   33.2715    9.9345   -2.1287 C   0  0  1  0  0  0  0  0  0  0  0  0
   38.0530   11.2623    0.1831 N   0  0  0  0  0  0  0  0  0  0  0  0
   24.4758   11.5154   -2.5933 O   0  0  0  0  0  0  0  0  0  0  0  0
   34.3894   11.0036   -2.4407 C   0  0  2  0  0  0  0  0  0  0  0  0
   35.7703   10.6844   -1.7699 C   0  0  1  0  0  0  0  0  0  0  0  0
   35.5816   10.5823   -0.3418 C   0  0  1  0  0  0  0  0  0  0  0  0
   34.5100    9.5596   -0.0148 O   0  0  0  0  0  0  0  0  0  0  0  0
   36.9528   10.2150    0.3778 C   0  0  0  0  0  0  0  0  0  0  0  0
   33.6841    8.7001   -2.6694 N   0  0  0  0  0  0  0  0  0  0  0  0
   32.6671   10.2425    3.2892 O   0  0  0  0  0  0  0  0  0  0  0  0
   22.8169    9.9806   -2.3647 C   0  0  0  0  0  0  0  0  0  0  0  0
   36.1411    9.6741   -2.1691 O   0  0  0  0  0  0  0  0  0  0  0  0
   34.0433   12.0168   -2.0200 O   0  0  0  0  0  0  0  0  0  0  0  0
   24.1526   10.3052   -0.4383 C   0  0  0  0  0  0  0  0  0  0  0  0
   21.9171   10.5491   -3.2383 C   0  0  0  0  0  0  0  0  0  0  0  0
   23.4697   10.9639   -1.7465 C   0  0  1  0  0  0  0  0  0  0  0  0
   33.0973    9.9979    5.9076 F   0  0  0  0  0  0  0  0  0  0  0  0
  1  2  1  6  0  0  0
  1 10  1  0  0  0  0
  1  3  1  0  0  0  0
  3  4  1  6  0  0  0
  3  6  1  0  0  0  0
  5 46  2  0  0  0  0
  6 42  1  6  0  0  0
  6  8  1  0  0  0  0
  7 47  1  0  0  0  0
  8  9  1  0  0  0  0
  8 49  1  1  0  0  0
  9 10  1  0  0  0  0
  9 11  1  1  0  0  0
 11 12  1  0  0  0  0
 13 14  1  6  0  0  0
 13 15  1  0  0  0  0
 13 21  1  0  0  0  0
 14 46  1  0  0  0  0
 15 16  1  0  0  0  0
 16 17  1  6  0  0  0
 16 18  1  0  0  0  0
 18  2  1  1  0  0  0
 18 19  1  0  0  0  0
 19 20  1  6  0  0  0
 19 21  1  0  0  0  0
 21 22  1  1  0  0  0
 23 20  1  6  0  0  0
 23 24  1  0  0  0  0
 23 28  1  0  0  0  0
 24 25  1  1  0  0  0
 24 26  1  0  0  0  0
 26 27  1  0  0  0  0
 26 32  1  1  0  0  0
 27 28  1  0  0  0  0
 27 29  1  6  0  0  0
 29 30  1  0  0  0  0
 31 32  1  6  0  0  0
 31 33  1  0  0  0  0
 31 39  1  0  0  0  0
 33 36  1  0  0  0  0
 33 41  1  1  0  0  0
 34 40  1  0  0  0  0
 35 48  1  0  0  0  0
 36 37  1  0  0  0  0
 36 45  1  1  0  0  0
 37 38  1  0  0  0  0
 37 44  1  6  0  0  0
 38 39  1  0  0  0  0
 38 40  1  1  0  0  0
 43 47  1  0  0  0  0
 46 48  1  0  0  0  0
 48 43  1  6  0  0  0
M  END
>  <CHROM.1>
-54.30628932,-84.98794815,-72.82658430,-163.55325470,-64.23414201,-102.37628129
-166.68792195,-51.62283758,-69.67529009,61.44194107,-177.81156591,-77.94465628
-129.49540939,29.91797806,10.11901310,1.12484850,0.22461411,-0.03247490,1.62951591

>  <Name>
ligand

>  <RI>
0

>  <Rbt.Current_Directory>
/home/itssahil/PROJECTS/Mol_Feturizer/New_Systems/rnas/4PDQ

>  <Rbt.Executable>
rbdock ($Id: //depot/dev/client3/rdock/2013.1/src/exe/rbdock.cxx#4 $)

>  <Rbt.Library>
libRbt.so (2013.1, Build901 2013/11/27)

>  <Rbt.Parameter_File>
/export/apps/rDock/src/rDock_2013.1_src/data/scripts/dock_solv.prm

>  <Rbt.Receptor>
prm/pocket_docking_4.prm

>  <SCORE>
-8.67137

>  <SCORE.INTER>
-1.68354

>  <SCORE.INTER.CONST>
1

>  <SCORE.INTER.POLAR>
0

>  <SCORE.INTER.ROT>
13

>  <SCORE.INTER.SOLV>
23.5706

>  <SCORE.INTER.VDW>
-21.2459

>  <SCORE.INTER.norm>
-0.0343579

>  <SCORE.INTRA>
-7.18676

>  <SCORE.INTRA.DIHEDRAL>
-21.4844

>  <SCORE.INTRA.DIHEDRAL.0>
34.5115

>  <SCORE.INTRA.POLAR>
0

>  <SCORE.INTRA.POLAR.0>
0

>  <SCORE.INTRA.REPUL>
0

>  <SCORE.INTRA.REPUL.0>
0

>  <SCORE.INTRA.SOLV>
3.45285

>  <SCORE.INTRA.SOLV.lig_0>
-122.812

>  <SCORE.INTRA.VDW>
1.82901

>  <SCORE.INTRA.VDW.0>
-7.46208

>  <SCORE.INTRA.norm>
-0.146669

>  <SCORE.RESTR>
0.198933

>  <SCORE.RESTR.CAVITY>
0.198933

>  <SCORE.RESTR.norm>
0.00405986

>  <SCORE.SYSTEM>
0

>  <SCORE.SYSTEM.CONST>
0

>  <SCORE.SYSTEM.DIHEDRAL>
0

>  <SCORE.SYSTEM.SOLV>
0

>  <SCORE.SYSTEM.norm>
0

>  <SCORE.heavy>
49

>  <SCORE.norm>
-0.176967

>  <RMSD>
10.371

$$$$
ligand
 OpenBabel11021811513D
libRbt.so/2013.1/901 2013/11/27
 49 52  0  0  0  0  0  0  0  0999 V2000
   28.6954   12.1073    7.0329 C   0  0  2  0  0  0  0  0  0  0  0  0
   29.1141   12.6158    5.8008 O   0  0  0  0  0  0  0  0  0  0  0  0
   29.4015   12.8934    8.1994 C   0  0  2  0  0  0  0  0  0  0  0  0
   29.0521   14.3692    8.0888 N   0  0  0  0  0  0  0  0  0  0  0  0
   24.5715    8.9177    2.3432 O   0  0  0  0  0  0  0  0  0  0  0  0
   30.9311   12.6704    8.1505 C   0  0  2  0  0  0  0  0  0  0  0  0
   23.5860   11.2858   -2.8848 N   0  0  0  0  0  0  0  0  0  0  0  0
   31.2581   11.1717    8.2437 C   0  0  2  0  0  0  0  0  0  0  0  0
   30.5605   10.3442    7.0826 C   0  0  2  0  0  0  0  0  0  0  0  0
   29.0600   10.6372    7.1367 O   0  0  0  0  0  0  0  0  0  0  0  0
   30.8506    8.8211    7.2158 C   0  0  0  0  0  0  0  0  0  0  0  0
   32.2328    8.5005    7.2384 N   0  0  0  0  0  0  0  0  0  0  0  0
   27.0089   10.4751    2.6722 C   0  0  2  0  0  0  0  0  0  0  0  0
   26.3902   10.1947    1.3434 N   0  0  0  0  0  0  0  0  0  0  0  0
   26.5453   11.9500    3.1039 C   0  0  0  0  0  0  0  0  0  0  0  0
   27.1368   12.3199    4.5151 C   0  0  2  0  0  0  0  0  0  0  0  0
   26.7356   13.6774    4.9131 N   0  0  0  0  0  0  0  0  0  0  0  0
   28.6771   12.2624    4.4803 C   0  0  2  0  0  0  0  0  0  0  0  0
   29.1681   10.8204    4.0532 C   0  0  2  0  0  0  0  0  0  0  0  0
   30.6437   10.8674    4.0575 O   0  0  0  0  0  0  0  0  0  0  0  0
   28.6031   10.4929    2.5784 C   0  0  1  0  0  0  0  0  0  0  0  0
   29.0521    9.2248    2.2180 O   0  0  0  0  0  0  0  0  0  0  0  0
   31.4365   10.4446    3.1327 C   0  0  1  0  0  0  0  0  0  0  0  0
   32.9543   10.6879    3.3811 C   0  0  2  0  0  0  0  0  0  0  0  0
   33.2938   11.9156    2.8178 O   0  0  0  0  0  0  0  0  0  0  0  0
   33.4880    9.5632    2.5948 C   0  0  1  0  0  0  0  0  0  0  0  0
   32.5540    8.3326    2.8108 C   0  0  2  0  0  0  0  0  0  0  0  0
   31.3245    9.0155    2.8311 O   0  0  0  0  0  0  0  0  0  0  0  0
   32.8612    7.3869    3.9728 C   0  0  0  0  0  0  0  0  0  0  0  0
   34.1279    6.8193    3.6974 O   0  0  0  0  0  0  0  0  0  0  0  0
   34.5584   10.8216    0.7798 C   0  0  2  0  0  0  0  0  0  0  0  0
   33.5226   10.0219    1.1684 O   0  0  0  0  0  0  0  0  0  0  0  0
   34.3568   11.3755   -0.5999 C   0  0  1  0  0  0  0  0  0  0  0  0
   38.5014    8.8490   -0.3714 N   0  0  0  0  0  0  0  0  0  0  0  0
   23.5148    8.2227   -0.1659 O   0  0  0  0  0  0  0  0  0  0  0  0
   35.6103   12.2452   -1.0029 C   0  0  2  0  0  0  0  0  0  0  0  0
   36.9672   11.4620   -0.9370 C   0  0  1  0  0  0  0  0  0  0  0  0
   37.1433   10.9477    0.4009 C   0  0  1  0  0  0  0  0  0  0  0  0
   35.9497   10.1071    0.8131 O   0  0  0  0  0  0  0  0  0  0  0  0
   38.4904   10.1062    0.5028 C   0  0  0  0  0  0  0  0  0  0  0  0
   34.2377   10.3232   -1.5299 N   0  0  0  0  0  0  0  0  0  0  0  0
   31.4159   13.2168    9.0295 O   0  0  0  0  0  0  0  0  0  0  0  0
   24.1581   10.3622   -0.5766 C   0  0  0  0  0  0  0  0  0  0  0  0
   36.9115   10.5804   -1.6699 O   0  0  0  0  0  0  0  0  0  0  0  0
   35.6952   13.1177   -0.2581 O   0  0  0  0  0  0  0  0  0  0  0  0
   25.1358    9.3730    1.3382 C   0  0  0  0  0  0  0  0  0  0  0  0
   23.9357   10.2929   -1.9337 C   0  0  0  0  0  0  0  0  0  0  0  0
   24.5827    9.1677   -0.1662 C   0  0  1  0  0  0  0  0  0  0  0  0
   30.8121   10.6599    9.4752 F   0  0  0  0  0  0  0  0  0  0  0  0
  1  2  1  6  0  0  0
  1 10  1  0  0  0  0
  1  3  1  0  0  0  0
  3  4  1  6  0  0  0
  3  6  1  0  0  0  0
  5 46  2  0  0  0  0
  6 42  1  1  0  0  0
  6  8  1  0  0  0  0
  7 47  1  0  0  0  0
  8  9  1  0  0  0  0
  8 49  1  1  0  0  0
  9 10  1  0  0  0  0
  9 11  1  1  0  0  0
 11 12  1  0  0  0  0
 13 14  1  6  0  0  0
 13 15  1  0  0  0  0
 13 21  1  0  0  0  0
 14 46  1  0  0  0  0
 15 16  1  0  0  0  0
 16 17  1  6  0  0  0
 16 18  1  0  0  0  0
 18  2  1  1  0  0  0
 18 19  1  0  0  0  0
 19 20  1  6  0  0  0
 19 21  1  0  0  0  0
 21 22  1  1  0  0  0
 23 20  1  1  0  0  0
 23 24  1  0  0  0  0
 23 28  1  0  0  0  0
 24 25  1  6  0  0  0
 24 26  1  0  0  0  0
 26 27  1  0  0  0  0
 26 32  1  6  0  0  0
 27 28  1  0  0  0  0
 27 29  1  1  0  0  0
 29 30  1  0  0  0  0
 31 32  1  6  0  0  0
 31 33  1  0  0  0  0
 31 39  1  0  0  0  0
 33 36  1  0  0  0  0
 33 41  1  6  0  0  0
 34 40  1  0  0  0  0
 35 48  1  0  0  0  0
 36 37  1  0  0  0  0
 36 45  1  1  0  0  0
 37 38  1  0  0  0  0
 37 44  1  6  0  0  0
 38 39  1  0  0  0  0
 38 40  1  6  0  0  0
 43 47  1  0  0  0  0
 46 48  1  0  0  0  0
 48 43  1  1  0  0  0
M  END
>  <CHROM.1>
-175.94736429,50.10402785,-56.51975508,-98.79679679,-132.16810748,177.16592711
79.62651750,-63.39110263,-171.12977445,-63.88020147,-174.23810689,-72.70040489
-9.66755076,30.77527479,10.63566070,3.03658100,-2.88157100,-0.00195324,-1.72815137

>  <Name>
ligand

>  <RI>
0

>  <Rbt.Current_Directory>
/home/itssahil/PROJECTS/Mol_Feturizer/New_Systems/rnas/4PDQ

>  <Rbt.Executable>
rbdock ($Id: //depot/dev/client3/rdock/2013.1/src/exe/rbdock.cxx#4 $)

>  <Rbt.Library>
libRbt.so (2013.1, Build901 2013/11/27)

>  <Rbt.Parameter_File>
/export/apps/rDock/src/rDock_2013.1_src/data/scripts/dock_solv.prm

>  <Rbt.Receptor>
prm/pocket_docking_7.prm

>  <SCORE>
-15.5231

>  <SCORE.INTER>
-8.6975

>  <SCORE.INTER.CONST>
1

>  <SCORE.INTER.POLAR>
0

>  <SCORE.INTER.ROT>
13

>  <SCORE.INTER.SOLV>
23.7021

>  <SCORE.INTER.VDW>
-25.9657

>  <SCORE.INTER.norm>
-0.1775

>  <SCORE.INTRA>
-6.82557

>  <SCORE.INTRA.DIHEDRAL>
-22.6526

>  <SCORE.INTRA.DIHEDRAL.0>
34.5115

>  <SCORE.INTRA.POLAR>
0

>  <SCORE.INTRA.POLAR.0>
0

>  <SCORE.INTRA.REPUL>
0

>  <SCORE.INTRA.REPUL.0>
0

>  <SCORE.INTRA.SOLV>
-0.745926

>  <SCORE.INTRA.SOLV.lig_0>
-122.812

>  <SCORE.INTRA.VDW>
4.87368

>  <SCORE.INTRA.VDW.0>
-7.46208

>  <SCORE.INTRA.norm>
-0.139297

>  <SCORE.RESTR>
0

>  <SCORE.RESTR.CAVITY>
0

>  <SCORE.RESTR.norm>
0

>  <SCORE.SYSTEM>
0

>  <SCORE.SYSTEM.CONST>
0

>  <SCORE.SYSTEM.DIHEDRAL>
0

>  <SCORE.SYSTEM.SOLV>
0

>  <SCORE.SYSTEM.norm>
0

>  <SCORE.heavy>
49

>  <SCORE.norm>
-0.316797

>  <RMSD>
10.377

$$$$
ligand
 OpenBabel11021811513D
libRbt.so/2013.1/901 2013/11/27
 49 52  0  0  0  0  0  0  0  0999 V2000
   25.9645   13.6651    6.4448 C   0  0  2  0  0  0  0  0  0  0  0  0
   26.6813   13.5851    7.6413 O   0  0  0  0  0  0  0  0  0  0  0  0
   26.7585   14.5437    5.4080 C   0  0  2  0  0  0  0  0  0  0  0  0
   28.1237   13.9187    5.1672 N   0  0  0  0  0  0  0  0  0  0  0  0
   28.2727    8.4427   11.0091 O   0  0  0  0  0  0  0  0  0  0  0  0
   26.8857   15.9976    5.9198 C   0  0  2  0  0  0  0  0  0  0  0  0
   25.9910   10.4640   14.6166 N   0  0  0  0  0  0  0  0  0  0  0  0
   25.4953   16.6003    6.1745 C   0  0  2  0  0  0  0  0  0  0  0  0
   24.6626   15.7388    7.2156 C   0  0  2  0  0  0  0  0  0  0  0  0
   24.6090   14.3011    6.6953 O   0  0  0  0  0  0  0  0  0  0  0  0
   23.2360   16.3237    7.4264 C   0  0  0  0  0  0  0  0  0  0  0  0
   22.1928   15.4514    7.0204 N   0  0  0  0  0  0  0  0  0  0  0  0
   26.0337   10.0255   10.0314 C   0  0  2  0  0  0  0  0  0  0  0  0
   25.9504    9.1456   11.2339 N   0  0  0  0  0  0  0  0  0  0  0  0
   27.4124   10.8401   10.1405 C   0  0  0  0  0  0  0  0  0  0  0  0
   27.5940   11.7812    8.8916 C   0  0  2  0  0  0  0  0  0  0  0  0
   28.8445   12.5484    8.9898 N   0  0  0  0  0  0  0  0  0  0  0  0
   26.4217   12.7784    8.7996 C   0  0  2  0  0  0  0  0  0  0  0  0
   25.0447   12.0066    8.6950 C   0  0  2  0  0  0  0  0  0  0  0  0
   23.9959   13.0416    8.6048 O   0  0  0  0  0  0  0  0  0  0  0  0
   24.8531   11.1010   10.0159 C   0  0  1  0  0  0  0  0  0  0  0  0
   23.6337   10.4368    9.9084 O   0  0  0  0  0  0  0  0  0  0  0  0
   23.7791   14.0018    9.4377 C   0  0  1  0  0  0  0  0  0  0  0  0
   22.4542   13.9050   10.2500 C   0  0  2  0  0  0  0  0  0  0  0  0
   21.4618   14.5779    9.5413 O   0  0  0  0  0  0  0  0  0  0  0  0
   22.8739   14.6571   11.4443 C   0  0  1  0  0  0  0  0  0  0  0  0
   24.3528   14.2768   11.7632 C   0  0  2  0  0  0  0  0  0  0  0  0
   24.8280   14.1947   10.4419 O   0  0  0  0  0  0  0  0  0  0  0  0
   24.6098   13.0849   12.6864 C   0  0  0  0  0  0  0  0  0  0  0  0
   25.8874   13.2946   13.2579 O   0  0  0  0  0  0  0  0  0  0  0  0
   23.8348   16.8665   10.9765 C   0  0  2  0  0  0  0  0  0  0  0  0
   22.7073   16.1088   11.1111 O   0  0  0  0  0  0  0  0  0  0  0  0
   23.9314   17.9271   12.0333 C   0  0  1  0  0  0  0  0  0  0  0  0
   26.5855   19.0352    7.2379 N   0  0  0  0  0  0  0  0  0  0  0  0
   27.8420    6.3866   12.9419 O   0  0  0  0  0  0  0  0  0  0  0  0
   25.2267   18.7942   11.7875 C   0  0  2  0  0  0  0  0  0  0  0  0
   25.2827   19.4531   10.3657 C   0  0  1  0  0  0  0  0  0  0  0  0
   25.1981   18.4133    9.3672 C   0  0  1  0  0  0  0  0  0  0  0  0
   23.9597   17.5639    9.5818 O   0  0  0  0  0  0  0  0  0  0  0  0
   25.2070   19.0414    7.9048 C   0  0  0  0  0  0  0  0  0  0  0  0
   22.8132   18.7821   11.9627 N   0  0  0  0  0  0  0  0  0  0  0  0
   27.4290   16.6236    5.1329 O   0  0  0  0  0  0  0  0  0  0  0  0
   27.1727    8.2963   13.9740 C   0  0  0  0  0  0  0  0  0  0  0  0
   24.3773   20.1499   10.2544 O   0  0  0  0  0  0  0  0  0  0  0  0
   26.1417   18.1017   11.8677 O   0  0  0  0  0  0  0  0  0  0  0  0
   27.1898    8.3895   11.6093 C   0  0  0  0  0  0  0  0  0  0  0  0
   26.0972    9.1467   14.1006 C   0  0  0  0  0  0  0  0  0  0  0  0
   26.9458    7.4957   12.9333 C   0  0  1  0  0  0  0  0  0  0  0  0
   24.7693   16.6552    4.9715 F   0  0  0  0  0  0  0  0  0  0  0  0
  1  2  1  1  0  0  0
  1 10  1  0  0  0  0
  1  3  1  0  0  0  0
  3  4  1  1  0  0  0
  3  6  1  0  0  0  0
  5 46  2  0  0  0  0
  6 42  1  6  0  0  0
  6  8  1  0  0  0  0
  7 47  1  0  0  0  0
  8  9  1  0  0  0  0
  8 49  1  6  0  0  0
  9 10  1  0  0  0  0
  9 11  1  6  0  0  0
 11 12  1  0  0  0  0
 13 14  1  1  0  0  0
 13 15  1  0  0  0  0
 13 21  1  0  0  0  0
 14 46  1  0  0  0  0
 15 16  1  0  0  0  0
 16 17  1  1  0  0  0
 16 18  1  0  0  0  0
 18  2  1  6  0  0  0
 18 19  1  0  0  0  0
 19 20  1  1  0  0  0
 19 21  1  0  0  0  0
 21 22  1  6  0  0  0
 23 20  1  1  0  0  0
 23 24  1  0  0  0  0
 23 28  1  0  0  0  0
 24 25  1  6  0  0  0
 24 26  1  0  0  0  0
 26 27  1  0  0  0  0
 26 32  1  6  0  0  0
 27 28  1  0  0  0  0
 27 29  1  6  0  0  0
 29 30  1  0  0  0  0
 31 32  1  6  0  0  0
 31 33  1  0  0  0  0
 31 39  1  0  0  0  0
 33 36  1  0  0  0  0
 33 41  1  6  0  0  0
 34 40  1  0  0  0  0
 35 48  1  0  0  0  0
 36 37  1  0  0  0  0
 36 45  1  6  0  0  0
 37 38  1  0  0  0  0
 37 44  1  6  0  0  0
 38 39  1  0  0  0  0
 38 40  1  6  0  0  0
 43 47  1  0  0  0  0
 46 48  1  0  0  0  0
 48 43  1  1  0  0  0
M  END
>  <CHROM.1>
-172.23845778,114.14487756,116.80051650,-44.93978168,-56.00892622,-111.86654672
-111.20829817,-155.52539432,-114.92496341,97.35554425,-151.36643007,-165.54961900
-26.59189430,25.32594252,14.06232102,9.66946698,-2.06000852,-1.12877744,2.28636203

>  <Name>
ligand

>  <RI>
0

>  <Rbt.Current_Directory>
/home/itssahil/PROJECTS/Mol_Feturizer/New_Systems/rnas/4PDQ

>  <Rbt.Executable>
rbdock ($Id: //depot/dev/client3/rdock/2013.1/src/exe/rbdock.cxx#4 $)

>  <Rbt.Library>
libRbt.so (2013.1, Build901 2013/11/27)

>  <Rbt.Parameter_File>
/export/apps/rDock/src/rDock_2013.1_src/data/scripts/dock_solv.prm

>  <Rbt.Receptor>
prm/blind_docking_80.prm

>  <SCORE>
24.345

>  <SCORE.INTER>
5.72321

>  <SCORE.INTER.CONST>
1

>  <SCORE.INTER.POLAR>
0

>  <SCORE.INTER.ROT>
13

>  <SCORE.INTER.SOLV>
36.571

>  <SCORE.INTER.VDW>
-20.6415

>  <SCORE.INTER.norm>
0.1168

>  <SCORE.INTRA>
15.975

>  <SCORE.INTRA.DIHEDRAL>
9.24336

>  <SCORE.INTRA.DIHEDRAL.0>
34.5115

>  <SCORE.INTRA.POLAR>
0

>  <SCORE.INTRA.POLAR.0>
0

>  <SCORE.INTRA.REPUL>
0

>  <SCORE.INTRA.REPUL.0>
0

>  <SCORE.INTRA.SOLV>
8.46089

>  <SCORE.INTRA.SOLV.lig_0>
-122.812

>  <SCORE.INTRA.VDW>
7.12286

>  <SCORE.INTRA.VDW.0>
-7.46208

>  <SCORE.INTRA.norm>
0.32602

>  <SCORE.RESTR>
2.64677

>  <SCORE.RESTR.CAVITY>
2.64677

>  <SCORE.RESTR.norm>
0.0540158

>  <SCORE.SYSTEM>
0

>  <SCORE.SYSTEM.CONST>
0

>  <SCORE.SYSTEM.DIHEDRAL>
0

>  <SCORE.SYSTEM.SOLV>
0

>  <SCORE.SYSTEM.norm>
0

>  <SCORE.heavy>
49

>  <SCORE.norm>
0.496836

>  <RMSD>
10.379

$$$$
ligand
 OpenBabel11021811513D
libRbt.so/2013.1/901 2013/11/27
 49 52  0  0  0  0  0  0  0  0999 V2000
   25.3454   14.8276    5.9300 C   0  0  2  0  0  0  0  0  0  0  0  0
   26.1694   14.7586    7.0562 O   0  0  0  0  0  0  0  0  0  0  0  0
   25.8174   16.0050    4.9982 C   0  0  2  0  0  0  0  0  0  0  0  0
   27.2610   15.7653    4.5847 N   0  0  0  0  0  0  0  0  0  0  0  0
   26.4776   11.4094   11.7852 O   0  0  0  0  0  0  0  0  0  0  0  0
   25.6555   17.3624    5.7214 C   0  0  2  0  0  0  0  0  0  0  0  0
   28.2483   10.5769   13.9098 N   0  0  0  0  0  0  0  0  0  0  0  0
   24.1938   17.5727    6.1466 C   0  0  2  0  0  0  0  0  0  0  0  0
   23.6807   16.4018    7.0876 C   0  0  2  0  0  0  0  0  0  0  0  0
   23.9096   15.0789    6.3542 O   0  0  0  0  0  0  0  0  0  0  0  0
   22.1840   16.5924    7.4688 C   0  0  0  0  0  0  0  0  0  0  0  0
   21.2883   16.4113    6.3830 N   0  0  0  0  0  0  0  0  0  0  0  0
   25.5322   10.9701    9.0671 C   0  0  2  0  0  0  0  0  0  0  0  0
   25.6981    9.8714   10.0633 N   0  0  0  0  0  0  0  0  0  0  0  0
   27.0046   11.4073    8.6010 C   0  0  0  0  0  0  0  0  0  0  0  0
   26.9218   12.5530    7.5245 C   0  0  2  0  0  0  0  0  0  0  0  0
   28.2656   12.9765    7.1041 N   0  0  0  0  0  0  0  0  0  0  0  0
   26.1887   13.7789    8.1048 C   0  0  2  0  0  0  0  0  0  0  0  0
   24.7328   13.3807    8.5787 C   0  0  2  0  0  0  0  0  0  0  0  0
   24.1173   14.6144    9.1064 O   0  0  0  0  0  0  0  0  0  0  0  0
   24.8483   12.2537    9.7267 C   0  0  1  0  0  0  0  0  0  0  0  0
   23.5586   11.9229   10.1355 O   0  0  0  0  0  0  0  0  0  0  0  0
   24.4822   15.2791   10.1494 C   0  0  1  0  0  0  0  0  0  0  0  0
   25.8068   16.0852   10.0072 C   0  0  2  0  0  0  0  0  0  0  0  0
   26.8569   15.2686   10.4201 O   0  0  0  0  0  0  0  0  0  0  0  0
   25.5246   17.1455   10.9891 C   0  0  1  0  0  0  0  0  0  0  0  0
   24.0189   17.5342   10.8653 C   0  0  2  0  0  0  0  0  0  0  0  0
   23.4978   16.2477   10.6380 O   0  0  0  0  0  0  0  0  0  0  0  0
   23.6363   18.6403    9.8808 C   0  0  0  0  0  0  0  0  0  0  0  0
   24.4768   19.7403   10.1745 O   0  0  0  0  0  0  0  0  0  0  0  0
   26.3943   17.4275   13.2667 C   0  0  2  0  0  0  0  0  0  0  0  0
   25.8691   16.5805   12.3338 O   0  0  0  0  0  0  0  0  0  0  0  0
   27.8942   17.4434   13.2334 C   0  0  1  0  0  0  0  0  0  0  0  0
   26.2020   18.6230   18.3417 N   0  0  0  0  0  0  0  0  0  0  0  0
   25.5108    7.9047   11.8745 O   0  0  0  0  0  0  0  0  0  0  0  0
   28.4326   18.4001   14.3669 C   0  0  2  0  0  0  0  0  0  0  0  0
   27.9363   18.0152   15.8037 C   0  0  1  0  0  0  0  0  0  0  0  0
   26.4922   18.0162   15.8132 C   0  0  1  0  0  0  0  0  0  0  0  0
   25.9487   17.1030   14.7307 O   0  0  0  0  0  0  0  0  0  0  0  0
   25.9430   17.5871   17.2440 C   0  0  0  0  0  0  0  0  0  0  0  0
   28.3963   16.1495   13.4786 N   0  0  0  0  0  0  0  0  0  0  0  0
   25.9655   18.2025    5.0113 O   0  0  0  0  0  0  0  0  0  0  0  0
   27.6000    8.6218   12.4045 C   0  0  0  0  0  0  0  0  0  0  0  0
   28.3089   16.9563   16.0431 O   0  0  0  0  0  0  0  0  0  0  0  0
   28.0423   19.4613   14.1552 O   0  0  0  0  0  0  0  0  0  0  0  0
   26.1993   10.2574   11.4229 C   0  0  0  0  0  0  0  0  0  0  0  0
   28.1879    9.2212   13.4959 C   0  0  0  0  0  0  0  0  0  0  0  0
   26.3129    8.9661   12.3878 C   0  0  1  0  0  0  0  0  0  0  0  0
   23.3660   17.6163    5.0107 F   0  0  0  0  0  0  0  0  0  0  0  0
  1  2  1  1  0  0  0
  1 10  1  0  0  0  0
  1  3  1  0  0  0  0
  3  4  1  1  0  0  0
  3  6  1  0  0  0  0
  5 46  2  0  0  0  0
  6 42  1  6  0  0  0
  6  8  1  0  0  0  0
  7 47  1  0  0  0  0
  8  9  1  0  0  0  0
  8 49  1  6  0  0  0
  9 10  1  0  0  0  0
  9 11  1  6  0  0  0
 11 12  1  0  0  0  0
 13 14  1  1  0  0  0
 13 15  1  0  0  0  0
 13 21  1  0  0  0  0
 14 46  1  0  0  0  0
 15 16  1  0  0  0  0
 16 17  1  1  0  0  0
 16 18  1  0  0  0  0
 18  2  1  6  0  0  0
 18 19  1  0  0  0  0
 19 20  1  1  0  0  0
 19 21  1  0  0  0  0
 21 22  1  6  0  0  0
 23 20  1  6  0  0  0
 23 24  1  0  0  0  0
 23 28  1  0  0  0  0
 24 25  1  1  0  0  0
 24 26  1  0  0  0  0
 26 27  1  0  0  0  0
 26 32  1  1  0  0  0
 27 28  1  0  0  0  0
 27 29  1  6  0  0  0
 29 30  1  0  0  0  0
 31 32  1  6  0  0  0
 31 33  1  0  0  0  0
 31 39  1  0  0  0  0
 33 36  1  0  0  0  0
 33 41  1  1  0  0  0
 34 40  1  0  0  0  0
 35 48  1  0  0  0  0
 36 37  1  0  0  0  0
 36 45  1  6  0  0  0
 37 38  1  0  0  0  0
 37 44  1  6  0  0  0
 38 39  1  0  0  0  0
 38 40  1  1  0  0  0
 43 47  1  0  0  0  0
 46 48  1  0  0  0  0
 48 43  1  6  0  0  0
M  END
>  <CHROM.1>
-173.87935818,77.88873519,69.14212326,73.24047967,-65.59707097,72.54969980
145.23675982,-51.35198317,-92.09853636,69.10414647,-54.88949508,-146.29779593
159.77603745,25.77807019,15.03341824,10.36998907,2.66305825,1.26642016,-2.72023716

>  <Name>
ligand

>  <RI>
0

>  <Rbt.Current_Directory>
/home/itssahil/PROJECTS/Mol_Feturizer/New_Systems/rnas/4PDQ

>  <Rbt.Executable>
rbdock ($Id: //depot/dev/client3/rdock/2013.1/src/exe/rbdock.cxx#4 $)

>  <Rbt.Library>
libRbt.so (2013.1, Build901 2013/11/27)

>  <Rbt.Parameter_File>
/export/apps/rDock/src/rDock_2013.1_src/data/scripts/dock_solv.prm

>  <Rbt.Receptor>
prm/blind_docking_40.prm

>  <SCORE>
-0.910623

>  <SCORE.INTER>
1.71926

>  <SCORE.INTER.CONST>
1

>  <SCORE.INTER.POLAR>
0

>  <SCORE.INTER.ROT>
13

>  <SCORE.INTER.SOLV>
29.7864

>  <SCORE.INTER.VDW>
-21.0493

>  <SCORE.INTER.norm>
0.035087

>  <SCORE.INTRA>
-6.04069

>  <SCORE.INTRA.DIHEDRAL>
-17.2453

>  <SCORE.INTRA.DIHEDRAL.0>
34.5115

>  <SCORE.INTRA.POLAR>
0

>  <SCORE.INTRA.POLAR.0>
0

>  <SCORE.INTRA.REPUL>
0.0464151

>  <SCORE.INTRA.REPUL.0>
0

>  <SCORE.INTRA.SOLV>
2.35617

>  <SCORE.INTRA.SOLV.lig_0>
-122.812

>  <SCORE.INTRA.VDW>
1.1718

>  <SCORE.INTRA.VDW.0>
-7.46208

>  <SCORE.INTRA.norm>
-0.123279

>  <SCORE.RESTR>
3.4108

>  <SCORE.RESTR.CAVITY>
3.4108

>  <SCORE.RESTR.norm>
0.0696082

>  <SCORE.SYSTEM>
0

>  <SCORE.SYSTEM.CONST>
0

>  <SCORE.SYSTEM.DIHEDRAL>
0

>  <SCORE.SYSTEM.SOLV>
0

>  <SCORE.SYSTEM.norm>
0

>  <SCORE.heavy>
49

>  <SCORE.norm>
-0.0185841

>  <RMSD>
10.394

$$$$
ligand
 OpenBabel11021811513D
libRbt.so/2013.1/901 2013/11/27
 49 52  0  0  0  0  0  0  0  0999 V2000
   26.9178   12.8447    8.0615 C   0  0  2  0  0  0  0  0  0  0  0  0
   27.6679   11.6732    8.1916 O   0  0  0  0  0  0  0  0  0  0  0  0
   27.8809   14.0882    8.0037 C   0  0  2  0  0  0  0  0  0  0  0  0
   28.8273   13.9312    6.8238 N   0  0  0  0  0  0  0  0  0  0  0  0
   24.9414    5.8040    9.9004 O   0  0  0  0  0  0  0  0  0  0  0  0
   28.6565   14.2311    9.3341 C   0  0  2  0  0  0  0  0  0  0  0  0
   25.1994    3.3638    5.2337 N   0  0  0  0  0  0  0  0  0  0  0  0
   27.6797   14.3682   10.5125 C   0  0  2  0  0  0  0  0  0  0  0  0
   26.6891   13.1311   10.6022 C   0  0  2  0  0  0  0  0  0  0  0  0
   25.9859   12.9968    9.2503 O   0  0  0  0  0  0  0  0  0  0  0  0
   25.6674   13.3032   11.7633 C   0  0  0  0  0  0  0  0  0  0  0  0
   24.7281   14.3456   11.5507 N   0  0  0  0  0  0  0  0  0  0  0  0
   26.7682    7.4334    8.3249 C   0  0  2  0  0  0  0  0  0  0  0  0
   26.2794    6.0940    7.8846 N   0  0  0  0  0  0  0  0  0  0  0  0
   25.6265    8.4969    7.9482 C   0  0  0  0  0  0  0  0  0  0  0  0
   26.0519    9.9428    8.4028 C   0  0  2  0  0  0  0  0  0  0  0  0
   25.0225   10.9298    8.0450 N   0  0  0  0  0  0  0  0  0  0  0  0
   27.3713   10.3514    7.7178 C   0  0  2  0  0  0  0  0  0  0  0  0
   28.5189    9.3194    8.0657 C   0  0  2  0  0  0  0  0  0  0  0  0
   29.7314    9.7999    7.3742 O   0  0  0  0  0  0  0  0  0  0  0  0
   28.0871    7.8600    7.5317 C   0  0  1  0  0  0  0  0  0  0  0  0
   29.1120    6.9689    7.8400 O   0  0  0  0  0  0  0  0  0  0  0  0
   29.9061    9.9123    6.1015 C   0  0  1  0  0  0  0  0  0  0  0  0
   28.9853   10.9413    5.3818 C   0  0  2  0  0  0  0  0  0  0  0  0
   27.8414   10.2725    4.9527 O   0  0  0  0  0  0  0  0  0  0  0  0
   29.8720   11.2786    4.2557 C   0  0  1  0  0  0  0  0  0  0  0  0
   31.3351   11.3468    4.7926 C   0  0  2  0  0  0  0  0  0  0  0  0
   31.2673   10.2707    5.6959 O   0  0  0  0  0  0  0  0  0  0  0  0
   31.8498   12.6867    5.3205 C   0  0  0  0  0  0  0  0  0  0  0  0
   31.9008   13.5581    4.2066 O   0  0  0  0  0  0  0  0  0  0  0  0
   30.3616   10.3175    2.0512 C   0  0  2  0  0  0  0  0  0  0  0  0
   29.6806   10.2039    3.2288 O   0  0  0  0  0  0  0  0  0  0  0  0
   30.0085   11.5759    1.3143 C   0  0  1  0  0  0  0  0  0  0  0  0
   31.5668    7.6764   -2.2754 N   0  0  0  0  0  0  0  0  0  0  0  0
   24.3895    3.1095    9.2244 O   0  0  0  0  0  0  0  0  0  0  0  0
   30.7904   11.6168   -0.0558 C   0  0  2  0  0  0  0  0  0  0  0  0
   30.5229   10.3717   -0.9706 C   0  0  1  0  0  0  0  0  0  0  0  0
   30.8789    9.1754   -0.2443 C   0  0  1  0  0  0  0  0  0  0  0  0
   30.1399    9.1121    1.0790 O   0  0  0  0  0  0  0  0  0  0  0  0
   30.5817    7.8807   -1.1209 C   0  0  0  0  0  0  0  0  0  0  0  0
   28.6282   11.5980    1.0306 N   0  0  0  0  0  0  0  0  0  0  0  0
   29.3170   15.1624    9.2824 O   0  0  0  0  0  0  0  0  0  0  0  0
   23.9504    4.2147    7.2890 C   0  0  0  0  0  0  0  0  0  0  0  0
   29.4021   10.3378   -1.2162 O   0  0  0  0  0  0  0  0  0  0  0  0
   31.9173   11.6220    0.1750 O   0  0  0  0  0  0  0  0  0  0  0  0
   25.3441    5.3745    8.8099 C   0  0  0  0  0  0  0  0  0  0  0  0
   24.5546    4.3230    6.0564 C   0  0  0  0  0  0  0  0  0  0  0  0
   24.8956    3.9510    8.1904 C   0  0  1  0  0  0  0  0  0  0  0  0
   26.9101   15.5356   10.3635 F   0  0  0  0  0  0  0  0  0  0  0  0
  1  2  1  1  0  0  0
  1 10  1  0  0  0  0
  1  3  1  0  0  0  0
  3  4  1  6  0  0  0
  3  6  1  0  0  0  0
  5 46  2  0  0  0  0
  6 42  1  6  0  0  0
  6  8  1  0  0  0  0
  7 47  1  0  0  0  0
  8  9  1  0  0  0  0
  8 49  1  6  0  0  0
  9 10  1  0  0  0  0
  9 11  1  1  0  0  0
 11 12  1  0  0  0  0
 13 14  1  6  0  0  0
 13 15  1  0  0  0  0
 13 21  1  0  0  0  0
 14 46  1  0  0  0  0
 15 16  1  0  0  0  0
 16 17  1  6  0  0  0
 16 18  1  0  0  0  0
 18  2  1  1  0  0  0
 18 19  1  0  0  0  0
 19 20  1  6  0  0  0
 19 21  1  0  0  0  0
 21 22  1  1  0  0  0
 23 20  1  1  0  0  0
 23 24  1  0  0  0  0
 23 28  1  0  0  0  0
 24 25  1  6  0  0  0
 24 26  1  0  0  0  0
 26 27  1  0  0  0  0
 26 32  1  6  0  0  0
 27 28  1  0  0  0  0
 27 29  1  1  0  0  0
 29 30  1  0  0  0  0
 31 32  1  1  0  0  0
 31 33  1  0  0  0  0
 31 39  1  0  0  0  0
 33 36  1  0  0  0  0
 33 41  1  6  0  0  0
 34 40  1  0  0  0  0
 35 48  1  0  0  0  0
 36 37  1  0  0  0  0
 36 45  1  1  0  0  0
 37 38  1  0  0  0  0
 37 44  1  1  0  0  0
 38 39  1  0  0  0  0
 38 40  1  6  0  0  0
 43 47  1  0  0  0  0
 46 48  1  0  0  0  0
 48 43  1  6  0  0  0
M  END
>  <CHROM.1>
-149.46372126,-60.38236025,68.23865850,-82.35978423,-63.29458106,64.02348582
177.44243833,-66.11429549,-59.90209615,72.91719663,67.63265341,-146.50748755
-19.91628172,28.17947313,10.12965615,5.95860340,-2.60034697,-1.00308656,-2.50374348

>  <Name>
ligand

>  <RI>
0

>  <Rbt.Current_Directory>
/home/itssahil/PROJECTS/Mol_Feturizer/New_Systems/rnas/4PDQ

>  <Rbt.Executable>
rbdock ($Id: //depot/dev/client3/rdock/2013.1/src/exe/rbdock.cxx#4 $)

>  <Rbt.Library>
libRbt.so (2013.1, Build901 2013/11/27)

>  <Rbt.Parameter_File>
/export/apps/rDock/src/rDock_2013.1_src/data/scripts/dock_solv.prm

>  <Rbt.Receptor>
prm/pocket_docking_7.prm

>  <SCORE>
-9.91086

>  <SCORE.INTER>
-2.61834

>  <SCORE.INTER.CONST>
1

>  <SCORE.INTER.POLAR>
0

>  <SCORE.INTER.ROT>
13

>  <SCORE.INTER.SOLV>
18.9503

>  <SCORE.INTER.VDW>
-20.329

>  <SCORE.INTER.norm>
-0.0534355

>  <SCORE.INTRA>
-7.29251

>  <SCORE.INTRA.DIHEDRAL>
-24.7956

>  <SCORE.INTRA.DIHEDRAL.0>
34.5115

>  <SCORE.INTRA.POLAR>
0

>  <SCORE.INTRA.POLAR.0>
0

>  <SCORE.INTRA.REPUL>
0

>  <SCORE.INTRA.REPUL.0>
0

>  <SCORE.INTRA.SOLV>
3.66115

>  <SCORE.INTRA.SOLV.lig_0>
-122.812

>  <SCORE.INTRA.VDW>
3.27469

>  <SCORE.INTRA.VDW.0>
-7.46208

>  <SCORE.INTRA.norm>
-0.148827

>  <SCORE.RESTR>
0

>  <SCORE.RESTR.CAVITY>
0

>  <SCORE.RESTR.norm>
0

>  <SCORE.SYSTEM>
0

>  <SCORE.SYSTEM.CONST>
0

>  <SCORE.SYSTEM.DIHEDRAL>
0

>  <SCORE.SYSTEM.SOLV>
0

>  <SCORE.SYSTEM.norm>
0

>  <SCORE.heavy>
49

>  <SCORE.norm>
-0.202262

>  <RMSD>
10.399

$$$$
ligand
 OpenBabel11021811513D
libRbt.so/2013.1/901 2013/11/27
 49 52  0  0  0  0  0  0  0  0999 V2000
   25.3924   14.1949    6.3098 C   0  0  2  0  0  0  0  0  0  0  0  0
   26.3678   13.5703    7.0912 O   0  0  0  0  0  0  0  0  0  0  0  0
   25.9661   14.4797    4.8721 C   0  0  2  0  0  0  0  0  0  0  0  0
   26.3931   13.1659    4.2366 N   0  0  0  0  0  0  0  0  0  0  0  0
   25.0706    7.9305   10.6570 O   0  0  0  0  0  0  0  0  0  0  0  0
   27.1447   15.4780    4.9505 C   0  0  2  0  0  0  0  0  0  0  0  0
   25.5382    7.6098   15.9416 N   0  0  0  0  0  0  0  0  0  0  0  0
   26.6942   16.7890    5.6137 C   0  0  2  0  0  0  0  0  0  0  0  0
   26.1068   16.5412    7.0674 C   0  0  2  0  0  0  0  0  0  0  0  0
   24.9829   15.5103    6.9475 O   0  0  0  0  0  0  0  0  0  0  0  0
   25.6017   17.8652    7.7104 C   0  0  0  0  0  0  0  0  0  0  0  0
   26.3858   19.0002    7.3771 N   0  0  0  0  0  0  0  0  0  0  0  0
   26.4800   10.4050   10.0528 C   0  0  2  0  0  0  0  0  0  0  0  0
   26.5260    9.7426   11.3893 N   0  0  0  0  0  0  0  0  0  0  0  0
   27.5754   11.5781   10.0725 C   0  0  0  0  0  0  0  0  0  0  0  0
   27.6116   12.3184    8.6836 C   0  0  2  0  0  0  0  0  0  0  0  0
   28.5976   13.4090    8.6955 N   0  0  0  0  0  0  0  0  0  0  0  0
   26.2291   12.9210    8.3636 C   0  0  2  0  0  0  0  0  0  0  0  0
   25.1234   11.7896    8.3407 C   0  0  2  0  0  0  0  0  0  0  0  0
   23.8490   12.4626    8.0209 O   0  0  0  0  0  0  0  0  0  0  0  0
   25.0616   11.0917    9.7935 C   0  0  1  0  0  0  0  0  0  0  0  0
   24.0787   10.1057    9.7552 O   0  0  0  0  0  0  0  0  0  0  0  0
   23.4376   13.5995    8.4693 C   0  0  1  0  0  0  0  0  0  0  0  0
   21.9120   13.8726    8.3192 C   0  0  2  0  0  0  0  0  0  0  0  0
   21.7053   14.5164    7.1015 O   0  0  0  0  0  0  0  0  0  0  0  0
   21.7412   14.7925    9.4561 C   0  0  1  0  0  0  0  0  0  0  0  0
   22.6233   14.2772   10.6350 C   0  0  2  0  0  0  0  0  0  0  0  0
   23.7313   13.8468    9.8829 O   0  0  0  0  0  0  0  0  0  0  0  0
   22.0047   13.2852   11.6209 C   0  0  0  0  0  0  0  0  0  0  0  0
   22.9570   13.1054   12.6522 O   0  0  0  0  0  0  0  0  0  0  0  0
   22.5917   17.0522    9.8961 C   0  0  2  0  0  0  0  0  0  0  0  0
   22.1565   16.1482    8.9705 O   0  0  0  0  0  0  0  0  0  0  0  0
   22.3585   18.4674    9.4557 C   0  0  1  0  0  0  0  0  0  0  0  0
   26.5071   16.1299   11.8774 N   0  0  0  0  0  0  0  0  0  0  0  0
   26.9758    6.9351   13.0704 O   0  0  0  0  0  0  0  0  0  0  0  0
   22.9296   19.4554   10.5455 C   0  0  2  0  0  0  0  0  0  0  0  0
   24.4513   19.2387   10.8559 C   0  0  1  0  0  0  0  0  0  0  0  0
   24.6489   17.8745   11.2864 C   0  0  1  0  0  0  0  0  0  0  0  0
   24.1071   16.9033   10.2547 O   0  0  0  0  0  0  0  0  0  0  0  0
   26.1899   17.5964   11.5711 C   0  0  0  0  0  0  0  0  0  0  0  0
   23.0357   18.7139    8.2445 N   0  0  0  0  0  0  0  0  0  0  0  0
   27.5166   15.6996    3.8927 O   0  0  0  0  0  0  0  0  0  0  0  0
   26.1539    8.9100   13.8348 C   0  0  0  0  0  0  0  0  0  0  0  0
   25.0457   19.4133    9.8895 O   0  0  0  0  0  0  0  0  0  0  0  0
   22.3617   19.2711   11.5288 O   0  0  0  0  0  0  0  0  0  0  0  0
   25.7425    8.4735   11.5455 C   0  0  0  0  0  0  0  0  0  0  0  0
   26.3446    8.4302   15.1113 C   0  0  0  0  0  0  0  0  0  0  0  0
   25.9020    7.8728   13.0372 C   0  0  1  0  0  0  0  0  0  0  0  0
   25.6949   17.4005    4.8359 F   0  0  0  0  0  0  0  0  0  0  0  0
  1  2  1  1  0  0  0
  1 10  1  0  0  0  0
  1  3  1  0  0  0  0
  3  4  1  1  0  0  0
  3  6  1  0  0  0  0
  5 46  2  0  0  0  0
  6 42  1  6  0  0  0
  6  8  1  0  0  0  0
  7 47  1  0  0  0  0
  8  9  1  0  0  0  0
  8 49  1  6  0  0  0
  9 10  1  0  0  0  0
  9 11  1  6  0  0  0
 11 12  1  0  0  0  0
 13 14  1  1  0  0  0
 13 15  1  0  0  0  0
 13 21  1  0  0  0  0
 14 46  1  0  0  0  0
 15 16  1  0  0  0  0
 16 17  1  1  0  0  0
 16 18  1  0  0  0  0
 18  2  1  6  0  0  0
 18 19  1  0  0  0  0
 19 20  1  1  0  0  0
 19 21  1  0  0  0  0
 21 22  1  6  0  0  0
 23 20  1  1  0  0  0
 23 24  1  0  0  0  0
 23 28  1  0  0  0  0
 24 25  1  6  0  0  0
 24 26  1  0  0  0  0
 26 27  1  0  0  0  0
 26 32  1  6  0  0  0
 27 28  1  0  0  0  0
 27 29  1  6  0  0  0
 29 30  1  0  0  0  0
 31 32  1  6  0  0  0
 31 33  1  0  0  0  0
 31 39  1  0  0  0  0
 33 36  1  0  0  0  0
 33 41  1  6  0  0  0
 34 40  1  0  0  0  0
 35 48  1  0  0  0  0
 36 37  1  0  0  0  0
 36 45  1  1  0  0  0
 37 38  1  0  0  0  0
 37 44  1  6  0  0  0
 38 39  1  0  0  0  0
 38 40  1  6  0  0  0
 43 47  1  0  0  0  0
 46 48  1  0  0  0  0
 48 43  1  1  0  0  0
M  END
>  <CHROM.1>
-167.83353894,175.38685574,-35.61569340,-170.66896619,-40.66819316,-162.33554959
-154.94872427,-173.69376744,-152.94104480,-173.36069406,-54.37272256,-58.43454271
86.25778429,24.95685870,14.08563147,9.35679420,-1.81462265,-1.06845306,2.44379331

>  <Name>
ligand

>  <RI>
0

>  <Rbt.Current_Directory>
/home/itssahil/PROJECTS/Mol_Feturizer/New_Systems/rnas/4PDQ

>  <Rbt.Executable>
rbdock ($Id: //depot/dev/client3/rdock/2013.1/src/exe/rbdock.cxx#4 $)

>  <Rbt.Library>
libRbt.so (2013.1, Build901 2013/11/27)

>  <Rbt.Parameter_File>
/export/apps/rDock/src/rDock_2013.1_src/data/scripts/dock_solv.prm

>  <Rbt.Receptor>
prm/blind_docking_80.prm

>  <SCORE>
17.025

>  <SCORE.INTER>
13.3983

>  <SCORE.INTER.CONST>
1

>  <SCORE.INTER.POLAR>
0

>  <SCORE.INTER.ROT>
13

>  <SCORE.INTER.SOLV>
31.3511

>  <SCORE.INTER.VDW>
-13.7848

>  <SCORE.INTER.norm>
0.273436

>  <SCORE.INTRA>
-2.8999

>  <SCORE.INTRA.DIHEDRAL>
-20.6567

>  <SCORE.INTRA.DIHEDRAL.0>
34.5115

>  <SCORE.INTRA.POLAR>
0

>  <SCORE.INTRA.POLAR.0>
0

>  <SCORE.INTRA.REPUL>
0.0877555

>  <SCORE.INTRA.REPUL.0>
0

>  <SCORE.INTRA.SOLV>
3.26532

>  <SCORE.INTRA.SOLV.lig_0>
-122.812

>  <SCORE.INTRA.VDW>
5.35699

>  <SCORE.INTRA.VDW.0>
-7.46208

>  <SCORE.INTRA.norm>
-0.0591816

>  <SCORE.RESTR>
6.52658

>  <SCORE.RESTR.CAVITY>
6.52658

>  <SCORE.RESTR.norm>
0.133196

>  <SCORE.SYSTEM>
0

>  <SCORE.SYSTEM.CONST>
0

>  <SCORE.SYSTEM.DIHEDRAL>
0

>  <SCORE.SYSTEM.SOLV>
0

>  <SCORE.SYSTEM.norm>
0

>  <SCORE.heavy>
49

>  <SCORE.norm>
0.347449

>  <RMSD>
10.404

$$$$
ligand
 OpenBabel11021811513D
libRbt.so/2013.1/901 2013/11/27
 49 52  0  0  0  0  0  0  0  0999 V2000
   28.7970    8.3036    6.8218 C   0  0  2  0  0  0  0  0  0  0  0  0
   28.3853    7.6061    5.6834 O   0  0  0  0  0  0  0  0  0  0  0  0
   29.7781    7.4088    7.6668 C   0  0  2  0  0  0  0  0  0  0  0  0
   30.9781    7.0383    6.8095 N   0  0  0  0  0  0  0  0  0  0  0  0
   23.3035    7.7296    1.0187 O   0  0  0  0  0  0  0  0  0  0  0  0
   29.0459    6.1498    8.1870 C   0  0  2  0  0  0  0  0  0  0  0  0
   22.2397    9.1429   -3.5400 N   0  0  0  0  0  0  0  0  0  0  0  0
   27.8269    6.5492    9.0331 C   0  0  2  0  0  0  0  0  0  0  0  0
   26.8137    7.4556    8.2137 C   0  0  2  0  0  0  0  0  0  0  0  0
   27.5924    8.6574    7.6754 O   0  0  0  0  0  0  0  0  0  0  0  0
   25.6100    7.9020    9.0932 C   0  0  0  0  0  0  0  0  0  0  0  0
   24.6186    8.6274    8.3828 N   0  0  0  0  0  0  0  0  0  0  0  0
   25.8351    8.4289    2.2742 C   0  0  2  0  0  0  0  0  0  0  0  0
   25.3213    9.0956    1.0419 N   0  0  0  0  0  0  0  0  0  0  0  0
   26.1958    9.5911    3.3210 C   0  0  0  0  0  0  0  0  0  0  0  0
   26.7258    8.9715    4.6676 C   0  0  2  0  0  0  0  0  0  0  0  0
   27.0789   10.0273    5.6281 N   0  0  0  0  0  0  0  0  0  0  0  0
   27.9826    8.1182    4.4046 C   0  0  2  0  0  0  0  0  0  0  0  0
   27.6620    6.9636    3.3715 C   0  0  2  0  0  0  0  0  0  0  0  0
   28.9168    6.2062    3.1948 O   0  0  0  0  0  0  0  0  0  0  0  0
   27.1844    7.6263    1.9808 C   0  0  1  0  0  0  0  0  0  0  0  0
   26.9150    6.5956    1.0837 O   0  0  0  0  0  0  0  0  0  0  0  0
   30.0450    6.6618    2.7675 C   0  0  1  0  0  0  0  0  0  0  0  0
   30.4821    6.1677    1.3571 C   0  0  2  0  0  0  0  0  0  0  0  0
   31.2489    5.0164    1.5201 O   0  0  0  0  0  0  0  0  0  0  0  0
   31.3100    7.3214    0.9677 C   0  0  1  0  0  0  0  0  0  0  0  0
   30.6062    8.6179    1.4747 C   0  0  2  0  0  0  0  0  0  0  0  0
   30.1351    8.1224    2.7040 O   0  0  0  0  0  0  0  0  0  0  0  0
   29.5978    9.3018    0.5505 C   0  0  0  0  0  0  0  0  0  0  0  0
   30.3204    9.6991   -0.5996 O   0  0  0  0  0  0  0  0  0  0  0  0
   33.6004    6.4454    0.8662 C   0  0  2  0  0  0  0  0  0  0  0  0
   32.6549    7.1086    1.5940 O   0  0  0  0  0  0  0  0  0  0  0  0
   34.8764    6.2611    1.6336 C   0  0  1  0  0  0  0  0  0  0  0  0
   33.9879    7.3486   -3.5925 N   0  0  0  0  0  0  0  0  0  0  0  0
   24.0729   10.7780   -0.7331 O   0  0  0  0  0  0  0  0  0  0  0  0
   35.9376    5.5362    0.7180 C   0  0  2  0  0  0  0  0  0  0  0  0
   36.2290    6.2899   -0.6258 C   0  0  1  0  0  0  0  0  0  0  0  0
   34.9894    6.4464   -1.3500 C   0  0  1  0  0  0  0  0  0  0  0  0
   33.9508    7.1415   -0.4903 O   0  0  0  0  0  0  0  0  0  0  0  0
   35.2311    7.2472   -2.7040 C   0  0  0  0  0  0  0  0  0  0  0  0
   35.4026    7.5152    2.0037 N   0  0  0  0  0  0  0  0  0  0  0  0
   29.7665    5.5384    8.8300 O   0  0  0  0  0  0  0  0  0  0  0  0
   24.1141    8.7972   -1.8442 C   0  0  0  0  0  0  0  0  0  0  0  0
   36.6462    7.3292   -0.3741 O   0  0  0  0  0  0  0  0  0  0  0  0
   35.5192    4.5030    0.4340 O   0  0  0  0  0  0  0  0  0  0  0  0
   24.0010    8.6205    0.5130 C   0  0  0  0  0  0  0  0  0  0  0  0
   23.5430    9.2860   -2.9979 C   0  0  0  0  0  0  0  0  0  0  0  0
   23.5759    9.4437   -0.8110 C   0  0  1  0  0  0  0  0  0  0  0  0
   28.2451    7.2723   10.1643 F   0  0  0  0  0  0  0  0  0  0  0  0
  1  2  1  6  0  0  0
  1 10  1  0  0  0  0
  1  3  1  0  0  0  0
  3  4  1  6  0  0  0
  3  6  1  0  0  0  0
  5 46  2  0  0  0  0
  6 42  1  1  0  0  0
  6  8  1  0  0  0  0
  7 47  1  0  0  0  0
  8  9  1  0  0  0  0
  8 49  1  1  0  0  0
  9 10  1  0  0  0  0
  9 11  1  1  0  0  0
 11 12  1  0  0  0  0
 13 14  1  6  0  0  0
 13 15  1  0  0  0  0
 13 21  1  0  0  0  0
 14 46  1  0  0  0  0
 15 16  1  0  0  0  0
 16 17  1  1  0  0  0
 16 18  1  0  0  0  0
 18  2  1  1  0  0  0
 18 19  1  0  0  0  0
 19 20  1  6  0  0  0
 19 21  1  0  0  0  0
 21 22  1  6  0  0  0
 23 20  1  6  0  0  0
 23 24  1  0  0  0  0
 23 28  1  0  0  0  0
 24 25  1  1  0  0  0
 24 26  1  0  0  0  0
 26 27  1  0  0  0  0
 26 32  1  1  0  0  0
 27 28  1  0  0  0  0
 27 29  1  6  0  0  0
 29 30  1  0  0  0  0
 31 32  1  1  0  0  0
 31 33  1  0  0  0  0
 31 39  1  0  0  0  0
 33 36  1  0  0  0  0
 33 41  1  6  0  0  0
 34 40  1  0  0  0  0
 35 48  1  0  0  0  0
 36 37  1  0  0  0  0
 36 45  1  6  0  0  0
 37 38  1  0  0  0  0
 37 44  1  1  0  0  0
 38 39  1  0  0  0  0
 38 40  1  6  0  0  0
 43 47  1  0  0  0  0
 46 48  1  0  0  0  0
 48 43  1  6  0  0  0
M  END
>  <CHROM.1>
-151.71996821,-62.20238892,-175.29515658,-127.98712451,-59.62938911,-110.23226033
91.18542946,-62.27808299,-177.90250162,174.86067977,-70.92565455,-73.52389224
147.16132581,29.29867298,7.62449120,2.64128859,-2.59210177,0.24248412,-1.46776656

>  <Name>
ligand

>  <RI>
0

>  <Rbt.Current_Directory>
/home/itssahil/PROJECTS/Mol_Feturizer/New_Systems/rnas/4PDQ

>  <Rbt.Executable>
rbdock ($Id: //depot/dev/client3/rdock/2013.1/src/exe/rbdock.cxx#4 $)

>  <Rbt.Library>
libRbt.so (2013.1, Build901 2013/11/27)

>  <Rbt.Parameter_File>
/export/apps/rDock/src/rDock_2013.1_src/data/scripts/dock_solv.prm

>  <Rbt.Receptor>
prm/pocket_docking_7.prm

>  <SCORE>
-12.3524

>  <SCORE.INTER>
-7.18723

>  <SCORE.INTER.CONST>
1

>  <SCORE.INTER.POLAR>
0

>  <SCORE.INTER.ROT>
13

>  <SCORE.INTER.SOLV>
20.3332

>  <SCORE.INTER.VDW>
-23.8359

>  <SCORE.INTER.norm>
-0.146678

>  <SCORE.INTRA>
-5.16517

>  <SCORE.INTRA.DIHEDRAL>
-16.6653

>  <SCORE.INTRA.DIHEDRAL.0>
34.5115

>  <SCORE.INTRA.POLAR>
0

>  <SCORE.INTRA.POLAR.0>
0

>  <SCORE.INTRA.REPUL>
0

>  <SCORE.INTRA.REPUL.0>
0

>  <SCORE.INTRA.SOLV>
-0.566164

>  <SCORE.INTRA.SOLV.lig_0>
-122.812

>  <SCORE.INTRA.VDW>
3.45057

>  <SCORE.INTRA.VDW.0>
-7.46208

>  <SCORE.INTRA.norm>
-0.105412

>  <SCORE.RESTR>
0

>  <SCORE.RESTR.CAVITY>
0

>  <SCORE.RESTR.norm>
0

>  <SCORE.SYSTEM>
0

>  <SCORE.SYSTEM.CONST>
0

>  <SCORE.SYSTEM.DIHEDRAL>
0

>  <SCORE.SYSTEM.SOLV>
0

>  <SCORE.SYSTEM.norm>
0

>  <SCORE.heavy>
49

>  <SCORE.norm>
-0.25209

>  <RMSD>
10.405

$$$$
ligand
 OpenBabel11021811513D
libRbt.so/2013.1/901 2013/11/27
 49 52  0  0  0  0  0  0  0  0999 V2000
   23.2880   15.7229    8.3560 C   0  0  2  0  0  0  0  0  0  0  0  0
   23.7576   15.3121    9.6061 O   0  0  0  0  0  0  0  0  0  0  0  0
   22.9958   14.4634    7.4586 C   0  0  2  0  0  0  0  0  0  0  0  0
   21.9636   13.5869    8.1505 N   0  0  0  0  0  0  0  0  0  0  0  0
   29.3004   17.3892   12.9315 O   0  0  0  0  0  0  0  0  0  0  0  0
   24.3028   13.6844    7.1815 C   0  0  2  0  0  0  0  0  0  0  0  0
   27.1026   21.1658   12.5559 N   0  0  0  0  0  0  0  0  0  0  0  0
   25.3363   14.5955    6.5007 C   0  0  2  0  0  0  0  0  0  0  0  0
   25.6558   15.8799    7.3769 C   0  0  2  0  0  0  0  0  0  0  0  0
   24.3311   16.5867    7.6700 O   0  0  0  0  0  0  0  0  0  0  0  0
   26.6605   16.8249    6.6564 C   0  0  0  0  0  0  0  0  0  0  0  0
   26.1296   17.4509    5.4987 N   0  0  0  0  0  0  0  0  0  0  0  0
   26.6945   17.7355   11.6808 C   0  0  2  0  0  0  0  0  0  0  0  0
   27.2657   18.7030   12.6630 N   0  0  0  0  0  0  0  0  0  0  0  0
   25.3619   18.4031   11.0850 C   0  0  0  0  0  0  0  0  0  0  0  0
   24.7037   17.4539   10.0153 C   0  0  2  0  0  0  0  0  0  0  0  0
   23.4704   18.0458    9.4765 N   0  0  0  0  0  0  0  0  0  0  0  0
   24.3490   16.0958   10.6529 C   0  0  2  0  0  0  0  0  0  0  0  0
   25.6423   15.4117   11.2548 C   0  0  2  0  0  0  0  0  0  0  0  0
   25.2009   14.1256   11.8297 O   0  0  0  0  0  0  0  0  0  0  0  0
   26.2593   16.3738   12.3928 C   0  0  1  0  0  0  0  0  0  0  0  0
   27.3905   15.7514   12.9150 O   0  0  0  0  0  0  0  0  0  0  0  0
   25.3632   12.9516   11.3215 C   0  0  1  0  0  0  0  0  0  0  0  0
   24.6743   12.7100    9.9461 C   0  0  2  0  0  0  0  0  0  0  0  0
   23.4001   12.2002   10.1838 O   0  0  0  0  0  0  0  0  0  0  0  0
   25.5842   11.6770    9.4238 C   0  0  1  0  0  0  0  0  0  0  0  0
   27.0395   12.0568    9.8377 C   0  0  2  0  0  0  0  0  0  0  0  0
   26.7589   12.5538   11.1233 O   0  0  0  0  0  0  0  0  0  0  0  0
   27.8511   12.9450    8.8936 C   0  0  0  0  0  0  0  0  0  0  0  0
   27.3696   14.2629    9.0777 O   0  0  0  0  0  0  0  0  0  0  0  0
   26.0766    9.5784   10.5972 C   0  0  2  0  0  0  0  0  0  0  0  0
   25.1335   10.3762   10.0165 O   0  0  0  0  0  0  0  0  0  0  0  0
   25.5858    8.1739   10.7911 C   0  0  1  0  0  0  0  0  0  0  0  0
   26.8999   10.4519   14.8856 N   0  0  0  0  0  0  0  0  0  0  0  0
   30.2536   19.0761   14.9728 O   0  0  0  0  0  0  0  0  0  0  0  0
   26.7035    7.3236   11.5107 C   0  0  2  0  0  0  0  0  0  0  0  0
   27.1618    7.9217   12.8859 C   0  0  1  0  0  0  0  0  0  0  0  0
   27.6384    9.2681   12.6723 C   0  0  1  0  0  0  0  0  0  0  0  0
   26.5809   10.1073   11.9804 O   0  0  0  0  0  0  0  0  0  0  0  0
   28.0742    9.9316   14.0518 C   0  0  0  0  0  0  0  0  0  0  0  0
   24.4395    8.1720   11.6110 N   0  0  0  0  0  0  0  0  0  0  0  0
   24.0714   12.7997    6.4960 O   0  0  0  0  0  0  0  0  0  0  0  0
   29.3945   20.5986   13.5223 C   0  0  0  0  0  0  0  0  0  0  0  0
   26.2528    7.9558   13.5860 O   0  0  0  0  0  0  0  0  0  0  0  0
   27.6320    7.3052   10.8319 O   0  0  0  0  0  0  0  0  0  0  0  0
   28.6194   18.3827   13.2230 C   0  0  0  0  0  0  0  0  0  0  0  0
   28.2439   21.3415   13.3801 C   0  0  0  0  0  0  0  0  0  0  0  0
   29.1050   19.5256   14.2572 C   0  0  1  0  0  0  0  0  0  0  0  0
   24.8480   15.0259    5.2543 F   0  0  0  0  0  0  0  0  0  0  0  0
  1  2  1  1  0  0  0
  1 10  1  0  0  0  0
  1  3  1  0  0  0  0
  3  4  1  1  0  0  0
  3  6  1  0  0  0  0
  5 46  2  0  0  0  0
  6 42  1  6  0  0  0
  6  8  1  0  0  0  0
  7 47  1  0  0  0  0
  8  9  1  0  0  0  0
  8 49  1  6  0  0  0
  9 10  1  0  0  0  0
  9 11  1  6  0  0  0
 11 12  1  0  0  0  0
 13 14  1  1  0  0  0
 13 15  1  0  0  0  0
 13 21  1  0  0  0  0
 14 46  1  0  0  0  0
 15 16  1  0  0  0  0
 16 17  1  1  0  0  0
 16 18  1  0  0  0  0
 18  2  1  6  0  0  0
 18 19  1  0  0  0  0
 19 20  1  1  0  0  0
 19 21  1  0  0  0  0
 21 22  1  6  0  0  0
 23 20  1  6  0  0  0
 23 24  1  0  0  0  0
 23 28  1  0  0  0  0
 24 25  1  1  0  0  0
 24 26  1  0  0  0  0
 26 27  1  0  0  0  0
 26 32  1  1  0  0  0
 27 28  1  0  0  0  0
 27 29  1  6  0  0  0
 29 30  1  0  0  0  0
 31 32  1  1  0  0  0
 31 33  1  0  0  0  0
 31 39  1  0  0  0  0
 33 36  1  0  0  0  0
 33 41  1  1  0  0  0
 34 40  1  0  0  0  0
 35 48  1  0  0  0  0
 36 37  1  0  0  0  0
 36 45  1  6  0  0  0
 37 38  1  0  0  0  0
 37 44  1  1  0  0  0
 38 39  1  0  0  0  0
 38 40  1  1  0  0  0
 43 47  1  0  0  0  0
 46 48  1  0  0  0  0
 48 43  1  6  0  0  0
M  END
>  <CHROM.1>
168.78296733,-13.86596951,68.18415874,-172.08021579,103.41537259,-62.01797066
-130.79210623,77.12356362,-163.67975679,-79.34496305,-76.94808220,-152.01851672
-12.50676369,26.08128517,14.17171575,10.59338579,1.33766963,-1.02610843,-0.15978415

>  <Name>
ligand

>  <RI>
0

>  <Rbt.Current_Directory>
/home/itssahil/PROJECTS/Mol_Feturizer/New_Systems/rnas/4PDQ

>  <Rbt.Executable>
rbdock ($Id: //depot/dev/client3/rdock/2013.1/src/exe/rbdock.cxx#4 $)

>  <Rbt.Library>
libRbt.so (2013.1, Build901 2013/11/27)

>  <Rbt.Parameter_File>
/export/apps/rDock/src/rDock_2013.1_src/data/scripts/dock_solv.prm

>  <Rbt.Receptor>
prm/blind_docking_60.prm

>  <SCORE>
13.7564

>  <SCORE.INTER>
1.28922

>  <SCORE.INTER.CONST>
1

>  <SCORE.INTER.POLAR>
0

>  <SCORE.INTER.ROT>
13

>  <SCORE.INTER.SOLV>
29.7663

>  <SCORE.INTER.VDW>
-21.3293

>  <SCORE.INTER.norm>
0.0263105

>  <SCORE.INTRA>
7.18311

>  <SCORE.INTRA.DIHEDRAL>
-6.95322

>  <SCORE.INTRA.DIHEDRAL.0>
34.5115

>  <SCORE.INTRA.POLAR>
0

>  <SCORE.INTRA.POLAR.0>
0

>  <SCORE.INTRA.REPUL>
0

>  <SCORE.INTRA.REPUL.0>
0

>  <SCORE.INTRA.SOLV>
10.1873

>  <SCORE.INTRA.SOLV.lig_0>
-122.812

>  <SCORE.INTRA.VDW>
5.56609

>  <SCORE.INTRA.VDW.0>
-7.46208

>  <SCORE.INTRA.norm>
0.146594

>  <SCORE.RESTR>
5.2841

>  <SCORE.RESTR.CAVITY>
5.2841

>  <SCORE.RESTR.norm>
0.107839

>  <SCORE.SYSTEM>
0

>  <SCORE.SYSTEM.CONST>
0

>  <SCORE.SYSTEM.DIHEDRAL>
0

>  <SCORE.SYSTEM.SOLV>
0

>  <SCORE.SYSTEM.norm>
0

>  <SCORE.heavy>
49

>  <SCORE.norm>
0.280743

>  <RMSD>
10.414

$$$$
ligand
 OpenBabel11021811513D
libRbt.so/2013.1/901 2013/11/27
 49 52  0  0  0  0  0  0  0  0999 V2000
   27.6475   15.6735    7.0522 C   0  0  2  0  0  0  0  0  0  0  0  0
   26.7173   15.5912    8.0915 O   0  0  0  0  0  0  0  0  0  0  0  0
   27.2406   16.8307    6.0660 C   0  0  2  0  0  0  0  0  0  0  0  0
   27.1852   18.1427    6.8329 N   0  0  0  0  0  0  0  0  0  0  0  0
   25.7668   11.7851   12.2689 O   0  0  0  0  0  0  0  0  0  0  0  0
   25.8850   16.5130    5.3927 C   0  0  2  0  0  0  0  0  0  0  0  0
   26.6105    6.4782   13.4980 N   0  0  0  0  0  0  0  0  0  0  0  0
   25.9598   15.1744    4.6415 C   0  0  2  0  0  0  0  0  0  0  0  0
   26.3701   13.9815    5.6049 C   0  0  2  0  0  0  0  0  0  0  0  0
   27.6853   14.3630    6.2868 O   0  0  0  0  0  0  0  0  0  0  0  0
   26.4980   12.6399    4.8267 C   0  0  0  0  0  0  0  0  0  0  0  0
   26.6867   11.5082    5.6621 N   0  0  0  0  0  0  0  0  0  0  0  0
   26.6058   11.4905    9.4968 C   0  0  2  0  0  0  0  0  0  0  0  0
   26.4344   10.3361   10.4269 N   0  0  0  0  0  0  0  0  0  0  0  0
   27.4737   12.5946   10.2741 C   0  0  0  0  0  0  0  0  0  0  0  0
   27.7245   13.8450    9.3510 C   0  0  2  0  0  0  0  0  0  0  0  0
   28.5018   14.8727   10.0591 N   0  0  0  0  0  0  0  0  0  0  0  0
   26.3819   14.4675    8.9189 C   0  0  2  0  0  0  0  0  0  0  0  0
   25.4986   13.4022    8.1521 C   0  0  2  0  0  0  0  0  0  0  0  0
   24.2489   14.0932    7.7776 O   0  0  0  0  0  0  0  0  0  0  0  0
   25.2016   12.1628    9.1407 C   0  0  1  0  0  0  0  0  0  0  0  0
   24.4176   11.2413    8.4510 O   0  0  0  0  0  0  0  0  0  0  0  0
   23.5958   14.9528    8.4828 C   0  0  1  0  0  0  0  0  0  0  0  0
   22.0986   15.1427    8.0996 C   0  0  2  0  0  0  0  0  0  0  0  0
   22.0188   16.1679    7.1602 O   0  0  0  0  0  0  0  0  0  0  0  0
   21.5885   15.5687    9.4135 C   0  0  1  0  0  0  0  0  0  0  0  0
   22.3121   14.7292   10.5113 C   0  0  2  0  0  0  0  0  0  0  0  0
   23.5895   14.6899    9.9238 O   0  0  0  0  0  0  0  0  0  0  0  0
   21.6842   13.4013   10.9371 C   0  0  0  0  0  0  0  0  0  0  0  0
   22.3099   13.0392   12.1536 O   0  0  0  0  0  0  0  0  0  0  0  0
   23.1333   17.4161    9.8867 C   0  0  2  0  0  0  0  0  0  0  0  0
   21.8735   17.0359    9.5234 O   0  0  0  0  0  0  0  0  0  0  0  0
   23.1725   17.9864   11.2739 C   0  0  1  0  0  0  0  0  0  0  0  0
   25.0255   21.3215    8.2438 N   0  0  0  0  0  0  0  0  0  0  0  0
   25.2366    8.2801   11.9202 O   0  0  0  0  0  0  0  0  0  0  0  0
   24.6435   18.4503   11.6074 C   0  0  2  0  0  0  0  0  0  0  0  0
   25.2216   19.4916   10.5875 C   0  0  1  0  0  0  0  0  0  0  0  0
   25.1825   18.9170    9.2631 C   0  0  1  0  0  0  0  0  0  0  0  0
   23.7772   18.4620    8.9178 O   0  0  0  0  0  0  0  0  0  0  0  0
   25.7208   19.9583    8.1866 C   0  0  0  0  0  0  0  0  0  0  0  0
   22.3296   19.1130   11.3567 N   0  0  0  0  0  0  0  0  0  0  0  0
   25.6318   17.3464    4.6527 O   0  0  0  0  0  0  0  0  0  0  0  0
   27.0795    8.9486   13.0676 C   0  0  0  0  0  0  0  0  0  0  0  0
   24.5547   20.4256   10.6073 O   0  0  0  0  0  0  0  0  0  0  0  0
   25.3288   17.5275   11.5627 O   0  0  0  0  0  0  0  0  0  0  0  0
   26.0003   10.6509   11.8273 C   0  0  0  0  0  0  0  0  0  0  0  0
   26.9882    7.8050   13.8291 C   0  0  0  0  0  0  0  0  0  0  0  0
   25.8473    9.3024   12.7045 C   0  0  1  0  0  0  0  0  0  0  0  0
   26.9152   15.2552    3.6129 F   0  0  0  0  0  0  0  0  0  0  0  0
  1  2  1  1  0  0  0
  1 10  1  0  0  0  0
  1  3  1  0  0  0  0
  3  4  1  1  0  0  0
  3  6  1  0  0  0  0
  5 46  2  0  0  0  0
  6 42  1  6  0  0  0
  6  8  1  0  0  0  0
  7 47  1  0  0  0  0
  8  9  1  0  0  0  0
  8 49  1  6  0  0  0
  9 10  1  0  0  0  0
  9 11  1  6  0  0  0
 11 12  1  0  0  0  0
 13 14  1  1  0  0  0
 13 15  1  0  0  0  0
 13 21  1  0  0  0  0
 14 46  1  0  0  0  0
 15 16  1  0  0  0  0
 16 17  1  1  0  0  0
 16 18  1  0  0  0  0
 18  2  1  6  0  0  0
 18 19  1  0  0  0  0
 19 20  1  1  0  0  0
 19 21  1  0  0  0  0
 21 22  1  6  0  0  0
 23 20  1  6  0  0  0
 23 24  1  0  0  0  0
 23 28  1  0  0  0  0
 24 25  1  6  0  0  0
 24 26  1  0  0  0  0
 26 27  1  0  0  0  0
 26 32  1  1  0  0  0
 27 28  1  0  0  0  0
 27 29  1  6  0  0  0
 29 30  1  0  0  0  0
 31 32  1  6  0  0  0
 31 33  1  0  0  0  0
 31 39  1  0  0  0  0
 33 36  1  0  0  0  0
 33 41  1  6  0  0  0
 34 40  1  0  0  0  0
 35 48  1  0  0  0  0
 36 37  1  0  0  0  0
 36 45  1  6  0  0  0
 37 38  1  0  0  0  0
 37 44  1  6  0  0  0
 38 39  1  0  0  0  0
 38 40  1  6  0  0  0
 43 47  1  0  0  0  0
 46 48  1  0  0  0  0
 48 43  1  6  0  0  0
M  END
>  <CHROM.1>
155.29426325,45.79551475,-172.02834854,47.81538228,-38.48701458,-159.14749103
-80.91044350,-164.55655699,-109.17904660,-52.82187743,67.85023177,-61.07366187
138.10465726,25.20244692,14.67635805,9.10139141,-1.83111791,-1.03490871,2.52748181

>  <Name>
ligand

>  <RI>
0

>  <Rbt.Current_Directory>
/home/itssahil/PROJECTS/Mol_Feturizer/New_Systems/rnas/4PDQ

>  <Rbt.Executable>
rbdock ($Id: //depot/dev/client3/rdock/2013.1/src/exe/rbdock.cxx#4 $)

>  <Rbt.Library>
libRbt.so (2013.1, Build901 2013/11/27)

>  <Rbt.Parameter_File>
/export/apps/rDock/src/rDock_2013.1_src/data/scripts/dock_solv.prm

>  <Rbt.Receptor>
prm/blind_docking_100.prm

>  <SCORE>
28.2101

>  <SCORE.INTER>
21.946

>  <SCORE.INTER.CONST>
1

>  <SCORE.INTER.POLAR>
0

>  <SCORE.INTER.ROT>
13

>  <SCORE.INTER.SOLV>
34.9001

>  <SCORE.INTER.VDW>
-9.26938

>  <SCORE.INTER.norm>
0.447877

>  <SCORE.INTRA>
1.85776

>  <SCORE.INTRA.DIHEDRAL>
-15.6189

>  <SCORE.INTRA.DIHEDRAL.0>
34.5115

>  <SCORE.INTRA.POLAR>
0

>  <SCORE.INTRA.POLAR.0>
0

>  <SCORE.INTRA.REPUL>
0.0266772

>  <SCORE.INTRA.REPUL.0>
0

>  <SCORE.INTRA.SOLV>
5.84402

>  <SCORE.INTRA.SOLV.lig_0>
-122.812

>  <SCORE.INTRA.VDW>
6.61183

>  <SCORE.INTRA.VDW.0>
-7.46208

>  <SCORE.INTRA.norm>
0.0379135

>  <SCORE.RESTR>
4.40636

>  <SCORE.RESTR.CAVITY>
4.40636

>  <SCORE.RESTR.norm>
0.0899257

>  <SCORE.SYSTEM>
0

>  <SCORE.SYSTEM.CONST>
0

>  <SCORE.SYSTEM.DIHEDRAL>
0

>  <SCORE.SYSTEM.SOLV>
0

>  <SCORE.SYSTEM.norm>
0

>  <SCORE.heavy>
49

>  <SCORE.norm>
0.575717

>  <RMSD>
10.425

$$$$
ligand
 OpenBabel11021811513D
libRbt.so/2013.1/901 2013/11/27
 49 52  0  0  0  0  0  0  0  0999 V2000
   26.3730    5.8756    8.7019 C   0  0  2  0  0  0  0  0  0  0  0  0
   27.4671    6.5727    9.2204 O   0  0  0  0  0  0  0  0  0  0  0  0
   26.8743    4.7695    7.7007 C   0  0  2  0  0  0  0  0  0  0  0  0
   27.8084    3.8198    8.4342 N   0  0  0  0  0  0  0  0  0  0  0  0
   28.1888   10.6180   13.2563 O   0  0  0  0  0  0  0  0  0  0  0  0
   27.5728    5.4206    6.4842 C   0  0  2  0  0  0  0  0  0  0  0  0
   25.7580   10.3539   17.0242 N   0  0  0  0  0  0  0  0  0  0  0  0
   26.6165    6.3899    5.7719 C   0  0  2  0  0  0  0  0  0  0  0  0
   26.0874    7.5208    6.7521 C   0  0  2  0  0  0  0  0  0  0  0  0
   25.4542    6.8313    7.9621 O   0  0  0  0  0  0  0  0  0  0  0  0
   25.0770    8.4652    6.0389 C   0  0  0  0  0  0  0  0  0  0  0  0
   25.6036    9.1023    4.8853 N   0  0  0  0  0  0  0  0  0  0  0  0
   26.0763   10.1020   11.3210 C   0  0  2  0  0  0  0  0  0  0  0  0
   25.9814   11.1547   12.3745 N   0  0  0  0  0  0  0  0  0  0  0  0
   26.1709    8.6889   12.0764 C   0  0  0  0  0  0  0  0  0  0  0  0
   26.2500    7.5130   11.0328 C   0  0  2  0  0  0  0  0  0  0  0  0
   26.3575    6.2139   11.7129 N   0  0  0  0  0  0  0  0  0  0  0  0
   27.4843    7.6865   10.1253 C   0  0  2  0  0  0  0  0  0  0  0  0
   27.4242    9.0741    9.3677 C   0  0  2  0  0  0  0  0  0  0  0  0
   28.6359    9.1395    8.5270 O   0  0  0  0  0  0  0  0  0  0  0  0
   27.4102   10.2629   10.4576 C   0  0  1  0  0  0  0  0  0  0  0  0
   27.3652   11.4742    9.7718 O   0  0  0  0  0  0  0  0  0  0  0  0
   28.8760    8.4609    7.4570 C   0  0  1  0  0  0  0  0  0  0  0  0
   29.6153    9.2289    6.3220 C   0  0  2  0  0  0  0  0  0  0  0  0
   28.6557    9.8013    5.4905 O   0  0  0  0  0  0  0  0  0  0  0  0
   30.2784    8.0828    5.6780 C   0  0  1  0  0  0  0  0  0  0  0  0
   30.7588    7.1076    6.7968 C   0  0  2  0  0  0  0  0  0  0  0  0
   29.6596    7.2408    7.6642 O   0  0  0  0  0  0  0  0  0  0  0  0
   32.1563    7.3125    7.3833 C   0  0  0  0  0  0  0  0  0  0  0  0
   32.1636    8.6113    7.9453 O   0  0  0  0  0  0  0  0  0  0  0  0
   29.5987    6.3020    4.1320 C   0  0  2  0  0  0  0  0  0  0  0  0
   29.2633    7.4637    4.7656 O   0  0  0  0  0  0  0  0  0  0  0  0
   30.8377    6.4509    3.2991 C   0  0  1  0  0  0  0  0  0  0  0  0
   27.5978    2.5067    1.1785 N   0  0  0  0  0  0  0  0  0  0  0  0
   26.5687   13.6875   13.6918 O   0  0  0  0  0  0  0  0  0  0  0  0
   31.1366    5.0902    2.5579 C   0  0  2  0  0  0  0  0  0  0  0  0
   29.9512    4.5873    1.6631 C   0  0  1  0  0  0  0  0  0  0  0  0
   28.7745    4.4424    2.4876 C   0  0  1  0  0  0  0  0  0  0  0  0
   28.4653    5.7386    3.2125 O   0  0  0  0  0  0  0  0  0  0  0  0
   27.5319    3.9745    1.6101 C   0  0  0  0  0  0  0  0  0  0  0  0
   30.6453    7.4479    2.3217 N   0  0  0  0  0  0  0  0  0  0  0  0
   27.8907    4.6008    5.7540 O   0  0  0  0  0  0  0  0  0  0  0  0
   25.9011   12.0791   15.1503 C   0  0  0  0  0  0  0  0  0  0  0  0
   29.7455    5.3786    0.8575 O   0  0  0  0  0  0  0  0  0  0  0  0
   31.3165    4.2804    3.3548 O   0  0  0  0  0  0  0  0  0  0  0  0
   27.1524   11.2960   13.3006 C   0  0  0  0  0  0  0  0  0  0  0  0
   26.3975   11.1605   16.0480 C   0  0  0  0  0  0  0  0  0  0  0  0
   26.9054   12.4803   14.3720 C   0  0  1  0  0  0  0  0  0  0  0  0
   25.5051    5.6869    5.2739 F   0  0  0  0  0  0  0  0  0  0  0  0
  1  2  1  6  0  0  0
  1 10  1  0  0  0  0
  1  3  1  0  0  0  0
  3  4  1  1  0  0  0
  3  6  1  0  0  0  0
  5 46  2  0  0  0  0
  6 42  1  6  0  0  0
  6  8  1  0  0  0  0
  7 47  1  0  0  0  0
  8  9  1  0  0  0  0
  8 49  1  1  0  0  0
  9 10  1  0  0  0  0
  9 11  1  6  0  0  0
 11 12  1  0  0  0  0
 13 14  1  1  0  0  0
 13 15  1  0  0  0  0
 13 21  1  0  0  0  0
 14 46  1  0  0  0  0
 15 16  1  0  0  0  0
 16 17  1  1  0  0  0
 16 18  1  0  0  0  0
 18  2  1  6  0  0  0
 18 19  1  0  0  0  0
 19 20  1  6  0  0  0
 19 21  1  0  0  0  0
 21 22  1  6  0  0  0
 23 20  1  1  0  0  0
 23 24  1  0  0  0  0
 23 28  1  0  0  0  0
 24 25  1  6  0  0  0
 24 26  1  0  0  0  0
 26 27  1  0  0  0  0
 26 32  1  6  0  0  0
 27 28  1  0  0  0  0
 27 29  1  1  0  0  0
 29 30  1  0  0  0  0
 31 32  1  6  0  0  0
 31 33  1  0  0  0  0
 31 39  1  0  0  0  0
 33 36  1  0  0  0  0
 33 41  1  6  0  0  0
 34 40  1  0  0  0  0
 35 48  1  0  0  0  0
 36 37  1  0  0  0  0
 36 45  1  1  0  0  0
 37 38  1  0  0  0  0
 37 44  1  6  0  0  0
 38 39  1  0  0  0  0
 38 40  1  6  0  0  0
 43 47  1  0  0  0  0
 46 48  1  0  0  0  0
 48 43  1  1  0  0  0
M  END
>  <CHROM.1>
177.61028342,31.32776576,-57.80713856,63.06738644,71.74974638,141.82375312
-174.42310654,60.25592431,-57.64932668,73.63311217,-174.69570811,-163.19222704
125.53680227,27.99042272,7.70100398,7.69466433,1.83337414,0.59387649,0.93002036

>  <Name>
ligand

>  <RI>
0

>  <Rbt.Current_Directory>
/home/itssahil/PROJECTS/Mol_Feturizer/New_Systems/rnas/4PDQ

>  <Rbt.Executable>
rbdock ($Id: //depot/dev/client3/rdock/2013.1/src/exe/rbdock.cxx#4 $)

>  <Rbt.Library>
libRbt.so (2013.1, Build901 2013/11/27)

>  <Rbt.Parameter_File>
/export/apps/rDock/src/rDock_2013.1_src/data/scripts/dock_solv.prm

>  <Rbt.Receptor>
prm/pocket_docking_7.prm

>  <SCORE>
-10.3077

>  <SCORE.INTER>
-1.5548

>  <SCORE.INTER.CONST>
1

>  <SCORE.INTER.POLAR>
0

>  <SCORE.INTER.ROT>
13

>  <SCORE.INTER.SOLV>
10.8523

>  <SCORE.INTER.VDW>
-16.9206

>  <SCORE.INTER.norm>
-0.0317307

>  <SCORE.INTRA>
-8.75286

>  <SCORE.INTRA.DIHEDRAL>
-22.6142

>  <SCORE.INTRA.DIHEDRAL.0>
34.5115

>  <SCORE.INTRA.POLAR>
0

>  <SCORE.INTRA.POLAR.0>
0

>  <SCORE.INTRA.REPUL>
0.3942

>  <SCORE.INTRA.REPUL.0>
0

>  <SCORE.INTRA.SOLV>
1.94047

>  <SCORE.INTRA.SOLV.lig_0>
-122.812

>  <SCORE.INTRA.VDW>
-0.386976

>  <SCORE.INTRA.VDW.0>
-7.46208

>  <SCORE.INTRA.norm>
-0.17863

>  <SCORE.RESTR>
0

>  <SCORE.RESTR.CAVITY>
0

>  <SCORE.RESTR.norm>
0

>  <SCORE.SYSTEM>
0

>  <SCORE.SYSTEM.CONST>
0

>  <SCORE.SYSTEM.DIHEDRAL>
0

>  <SCORE.SYSTEM.SOLV>
0

>  <SCORE.SYSTEM.norm>
0

>  <SCORE.heavy>
49

>  <SCORE.norm>
-0.210361

>  <RMSD>
10.426

$$$$
ligand
 OpenBabel11021811513D
libRbt.so/2013.1/901 2013/11/27
 49 52  0  0  0  0  0  0  0  0999 V2000
   28.8865   10.4634    5.8485 C   0  0  2  0  0  0  0  0  0  0  0  0
   29.2113   11.2046    4.7096 O   0  0  0  0  0  0  0  0  0  0  0  0
   29.4312   11.1950    7.1312 C   0  0  2  0  0  0  0  0  0  0  0  0
   28.8184   12.5845    7.2105 N   0  0  0  0  0  0  0  0  0  0  0  0
   24.6573    8.1288    0.5683 O   0  0  0  0  0  0  0  0  0  0  0  0
   30.9760   11.2606    7.0988 C   0  0  2  0  0  0  0  0  0  0  0  0
   22.0228   11.8228   -3.1167 N   0  0  0  0  0  0  0  0  0  0  0  0
   31.5710    9.8472    6.9986 C   0  0  2  0  0  0  0  0  0  0  0  0
   31.0423    9.0761    5.7158 C   0  0  2  0  0  0  0  0  0  0  0  0
   29.5132    9.0833    5.7637 O   0  0  0  0  0  0  0  0  0  0  0  0
   31.6052    7.6268    5.6507 C   0  0  0  0  0  0  0  0  0  0  0  0
   31.0258    6.8320    4.6277 N   0  0  0  0  0  0  0  0  0  0  0  0
   26.3831   10.2512    1.5640 C   0  0  2  0  0  0  0  0  0  0  0  0
   25.6814   10.3167    0.2486 N   0  0  0  0  0  0  0  0  0  0  0  0
   26.5412   11.7604    2.0873 C   0  0  0  0  0  0  0  0  0  0  0  0
   27.2543   11.7827    3.4906 C   0  0  2  0  0  0  0  0  0  0  0  0
   27.4233   13.1618    3.9717 N   0  0  0  0  0  0  0  0  0  0  0  0
   28.6484   11.1318    3.3914 C   0  0  2  0  0  0  0  0  0  0  0  0
   28.5285    9.6417    2.8733 C   0  0  2  0  0  0  0  0  0  0  0  0
   29.9046    9.1096    2.8212 O   0  0  0  0  0  0  0  0  0  0  0  0
   27.8552    9.6521    1.4077 C   0  0  1  0  0  0  0  0  0  0  0  0
   27.7658    8.3341    0.9666 O   0  0  0  0  0  0  0  0  0  0  0  0
   30.7197    9.1618    1.8234 C   0  0  1  0  0  0  0  0  0  0  0  0
   31.1036   10.5910    1.3390 C   0  0  2  0  0  0  0  0  0  0  0  0
   30.2000   10.9698    0.3491 O   0  0  0  0  0  0  0  0  0  0  0  0
   32.4288   10.2830    0.7761 C   0  0  1  0  0  0  0  0  0  0  0  0
   33.1266    9.2492    1.7130 C   0  0  2  0  0  0  0  0  0  0  0  0
   31.9966    8.4757    2.0346 O   0  0  0  0  0  0  0  0  0  0  0  0
   33.9774    9.7793    2.8680 C   0  0  0  0  0  0  0  0  0  0  0  0
   33.1012   10.5158    3.7001 O   0  0  0  0  0  0  0  0  0  0  0  0
   33.2784    9.4546   -1.3723 C   0  0  2  0  0  0  0  0  0  0  0  0
   32.1893    9.7468   -0.6028 O   0  0  0  0  0  0  0  0  0  0  0  0
   32.8915    8.8700   -2.6988 C   0  0  1  0  0  0  0  0  0  0  0  0
   37.7763    6.7917   -1.3837 N   0  0  0  0  0  0  0  0  0  0  0  0
   23.3862    8.2051   -1.9300 O   0  0  0  0  0  0  0  0  0  0  0  0
   34.1950    8.5101   -3.5121 C   0  0  2  0  0  0  0  0  0  0  0  0
   35.1565    7.5276   -2.7577 C   0  0  1  0  0  0  0  0  0  0  0  0
   35.5221    8.1156   -1.4904 C   0  0  1  0  0  0  0  0  0  0  0  0
   34.2848    8.4716   -0.6881 O   0  0  0  0  0  0  0  0  0  0  0  0
   36.4650    7.1309   -0.6692 C   0  0  0  0  0  0  0  0  0  0  0  0
   32.1546    7.6840   -2.5072 N   0  0  0  0  0  0  0  0  0  0  0  0
   31.3483   11.7586    8.0578 O   0  0  0  0  0  0  0  0  0  0  0  0
   23.3258   10.4202   -1.4305 C   0  0  0  0  0  0  0  0  0  0  0  0
   34.5918    6.5473   -2.5635 O   0  0  0  0  0  0  0  0  0  0  0  0
   34.7861    9.4809   -3.6891 O   0  0  0  0  0  0  0  0  0  0  0  0
   24.8297    9.1406   -0.1261 C   0  0  0  0  0  0  0  0  0  0  0  0
   22.9075   10.8007   -2.6860 C   0  0  0  0  0  0  0  0  0  0  0  0
   24.1295    9.3660   -1.5649 C   0  0  1  0  0  0  0  0  0  0  0  0
   31.2199    9.0980    8.1356 F   0  0  0  0  0  0  0  0  0  0  0  0
  1  2  1  6  0  0  0
  1 10  1  0  0  0  0
  1  3  1  0  0  0  0
  3  4  1  6  0  0  0
  3  6  1  0  0  0  0
  5 46  2  0  0  0  0
  6 42  1  1  0  0  0
  6  8  1  0  0  0  0
  7 47  1  0  0  0  0
  8  9  1  0  0  0  0
  8 49  1  1  0  0  0
  9 10  1  0  0  0  0
  9 11  1  1  0  0  0
 11 12  1  0  0  0  0
 13 14  1  6  0  0  0
 13 15  1  0  0  0  0
 13 21  1  0  0  0  0
 14 46  1  0  0  0  0
 15 16  1  0  0  0  0
 16 17  1  6  0  0  0
 16 18  1  0  0  0  0
 18  2  1  1  0  0  0
 18 19  1  0  0  0  0
 19 20  1  6  0  0  0
 19 21  1  0  0  0  0
 21 22  1  1  0  0  0
 23 20  1  1  0  0  0
 23 24  1  0  0  0  0
 23 28  1  0  0  0  0
 24 25  1  6  0  0  0
 24 26  1  0  0  0  0
 26 27  1  0  0  0  0
 26 32  1  6  0  0  0
 27 28  1  0  0  0  0
 27 29  1  1  0  0  0
 29 30  1  0  0  0  0
 31 32  1  1  0  0  0
 31 33  1  0  0  0  0
 31 39  1  0  0  0  0
 33 36  1  0  0  0  0
 33 41  1  1  0  0  0
 34 40  1  0  0  0  0
 35 48  1  0  0  0  0
 36 37  1  0  0  0  0
 36 45  1  1  0  0  0
 37 38  1  0  0  0  0
 37 44  1  1  0  0  0
 38 39  1  0  0  0  0
 38 40  1  1  0  0  0
 43 47  1  0  0  0  0
 46 48  1  0  0  0  0
 48 43  1  1  0  0  0
M  END
>  <CHROM.1>
-162.06987924,73.52935560,171.88396556,-150.53483576,-89.89397725,60.78979217
176.31851478,61.69776626,177.38953717,60.30137875,177.85321342,-71.83783114
-4.08840912,30.14183697,9.58064190,1.67032175,-2.84996747,0.19489933,-1.75858967

>  <Name>
ligand

>  <RI>
0

>  <Rbt.Current_Directory>
/home/itssahil/PROJECTS/Mol_Feturizer/New_Systems/rnas/4PDQ

>  <Rbt.Executable>
rbdock ($Id: //depot/dev/client3/rdock/2013.1/src/exe/rbdock.cxx#4 $)

>  <Rbt.Library>
libRbt.so (2013.1, Build901 2013/11/27)

>  <Rbt.Parameter_File>
/export/apps/rDock/src/rDock_2013.1_src/data/scripts/dock_solv.prm

>  <Rbt.Receptor>
prm/pocket_docking_7.prm

>  <SCORE>
-14.168

>  <SCORE.INTER>
-2.76747

>  <SCORE.INTER.CONST>
1

>  <SCORE.INTER.POLAR>
0

>  <SCORE.INTER.ROT>
13

>  <SCORE.INTER.SOLV>
19.833

>  <SCORE.INTER.VDW>
-20.7226

>  <SCORE.INTER.norm>
-0.0564791

>  <SCORE.INTRA>
-11.4006

>  <SCORE.INTRA.DIHEDRAL>
-26.2644

>  <SCORE.INTRA.DIHEDRAL.0>
34.5115

>  <SCORE.INTRA.POLAR>
0

>  <SCORE.INTRA.POLAR.0>
0

>  <SCORE.INTRA.REPUL>
0.03343

>  <SCORE.INTRA.REPUL.0>
0

>  <SCORE.INTRA.SOLV>
1.86413

>  <SCORE.INTRA.SOLV.lig_0>
-122.812

>  <SCORE.INTRA.VDW>
0.632418

>  <SCORE.INTRA.VDW.0>
-7.46208

>  <SCORE.INTRA.norm>
-0.232665

>  <SCORE.RESTR>
0

>  <SCORE.RESTR.CAVITY>
0

>  <SCORE.RESTR.norm>
0

>  <SCORE.SYSTEM>
0

>  <SCORE.SYSTEM.CONST>
0

>  <SCORE.SYSTEM.DIHEDRAL>
0

>  <SCORE.SYSTEM.SOLV>
0

>  <SCORE.SYSTEM.norm>
0

>  <SCORE.heavy>
49

>  <SCORE.norm>
-0.289144

>  <RMSD>
10.432

$$$$
ligand
 OpenBabel11021811513D
libRbt.so/2013.1/901 2013/11/27
 49 52  0  0  0  0  0  0  0  0999 V2000
   24.5660   14.2741    8.9320 C   0  0  2  0  0  0  0  0  0  0  0  0
   24.1995   12.9745    9.2907 O   0  0  0  0  0  0  0  0  0  0  0  0
   23.2771   15.1233    8.6242 C   0  0  2  0  0  0  0  0  0  0  0  0
   22.3880   15.1449    9.8577 N   0  0  0  0  0  0  0  0  0  0  0  0
   28.1591    8.8502   10.3561 O   0  0  0  0  0  0  0  0  0  0  0  0
   22.5300   14.5442    7.4002 C   0  0  2  0  0  0  0  0  0  0  0  0
   29.6679    5.3105    9.3634 N   0  0  0  0  0  0  0  0  0  0  0  0
   23.4539   14.5142    6.1725 C   0  0  2  0  0  0  0  0  0  0  0  0
   24.7679   13.6668    6.4460 C   0  0  2  0  0  0  0  0  0  0  0  0
   25.4428   14.2409    7.6931 O   0  0  0  0  0  0  0  0  0  0  0  0
   25.7240   13.6871    5.2183 C   0  0  0  0  0  0  0  0  0  0  0  0
   26.9104   12.9306    5.4029 N   0  0  0  0  0  0  0  0  0  0  0  0
   25.6000    9.5510   11.5536 C   0  0  2  0  0  0  0  0  0  0  0  0
   26.3345    8.2914   11.8715 N   0  0  0  0  0  0  0  0  0  0  0  0
   24.9343    9.3538   10.1064 C   0  0  0  0  0  0  0  0  0  0  0  0
   24.1140   10.6347    9.7006 C   0  0  2  0  0  0  0  0  0  0  0  0
   23.5156   10.4742    8.3672 N   0  0  0  0  0  0  0  0  0  0  0  0
   25.0346   11.8710    9.6710 C   0  0  2  0  0  0  0  0  0  0  0  0
   25.7114   12.0918   11.0839 C   0  0  2  0  0  0  0  0  0  0  0  0
   26.5593   13.2932   10.9536 O   0  0  0  0  0  0  0  0  0  0  0  0
   26.5974   10.7936   11.4460 C   0  0  1  0  0  0  0  0  0  0  0  0
   27.1901   11.0104   12.6875 O   0  0  0  0  0  0  0  0  0  0  0  0
   26.1641   14.5188   10.8874 C   0  0  1  0  0  0  0  0  0  0  0  0
   25.3892   15.0466   12.1306 C   0  0  2  0  0  0  0  0  0  0  0  0
   24.0309   14.8184   11.9231 O   0  0  0  0  0  0  0  0  0  0  0  0
   25.7252   16.4749   12.0082 C   0  0  1  0  0  0  0  0  0  0  0  0
   27.2119   16.5868   11.5493 C   0  0  2  0  0  0  0  0  0  0  0  0
   27.2292   15.4981   10.6589 O   0  0  0  0  0  0  0  0  0  0  0  0
   28.2981   16.6434   12.6244 C   0  0  0  0  0  0  0  0  0  0  0  0
   27.9422   15.6802   13.5982 O   0  0  0  0  0  0  0  0  0  0  0  0
   25.2064   18.0706   10.2171 C   0  0  2  0  0  0  0  0  0  0  0  0
   24.7656   17.0521   11.0120 O   0  0  0  0  0  0  0  0  0  0  0  0
   24.2904   19.2581   10.2617 C   0  0  1  0  0  0  0  0  0  0  0  0
   27.1452   17.1269    6.1615 N   0  0  0  0  0  0  0  0  0  0  0  0
   28.1416    6.4885   13.0279 O   0  0  0  0  0  0  0  0  0  0  0  0
   24.8310   20.3729    9.2845 C   0  0  2  0  0  0  0  0  0  0  0  0
   24.9979   19.8849    7.8037 C   0  0  1  0  0  0  0  0  0  0  0  0
   25.8900   18.7495    7.7855 C   0  0  1  0  0  0  0  0  0  0  0  0
   25.3922   17.6620    8.7185 O   0  0  0  0  0  0  0  0  0  0  0  0
   26.0545   18.1923    6.3037 C   0  0  0  0  0  0  0  0  0  0  0  0
   22.9999   18.8886    9.8320 N   0  0  0  0  0  0  0  0  0  0  0  0
   21.6225   15.2006    7.1724 O   0  0  0  0  0  0  0  0  0  0  0  0
   27.7016    5.7168   10.9373 C   0  0  0  0  0  0  0  0  0  0  0  0
   23.9697   19.5561    7.4135 O   0  0  0  0  0  0  0  0  0  0  0  0
   25.8749   20.6918    9.6476 O   0  0  0  0  0  0  0  0  0  0  0  0
   27.6408    8.0712   11.1686 C   0  0  0  0  0  0  0  0  0  0  0  0
   28.3244    5.6012    9.7147 C   0  0  0  0  0  0  0  0  0  0  0  0
   28.3179    6.6769   11.6255 C   0  0  1  0  0  0  0  0  0  0  0  0
   23.8396   15.8227    5.8313 F   0  0  0  0  0  0  0  0  0  0  0  0
  1  2  1  6  0  0  0
  1 10  1  0  0  0  0
  1  3  1  0  0  0  0
  3  4  1  1  0  0  0
  3  6  1  0  0  0  0
  5 46  2  0  0  0  0
  6 42  1  6  0  0  0
  6  8  1  0  0  0  0
  7 47  1  0  0  0  0
  8  9  1  0  0  0  0
  8 49  1  1  0  0  0
  9 10  1  0  0  0  0
  9 11  1  6  0  0  0
 11 12  1  0  0  0  0
 13 14  1  6  0  0  0
 13 15  1  0  0  0  0
 13 21  1  0  0  0  0
 14 46  1  0  0  0  0
 15 16  1  0  0  0  0
 16 17  1  6  0  0  0
 16 18  1  0  0  0  0
 18  2  1  1  0  0  0
 18 19  1  0  0  0  0
 19 20  1  6  0  0  0
 19 21  1  0  0  0  0
 21 22  1  1  0  0  0
 23 20  1  1  0  0  0
 23 24  1  0  0  0  0
 23 28  1  0  0  0  0
 24 25  1  6  0  0  0
 24 26  1  0  0  0  0
 26 27  1  0  0  0  0
 26 32  1  6  0  0  0
 27 28  1  0  0  0  0
 27 29  1  1  0  0  0
 29 30  1  0  0  0  0
 31 32  1  1  0  0  0
 31 33  1  0  0  0  0
 31 39  1  0  0  0  0
 33 36  1  0  0  0  0
 33 41  1  6  0  0  0
 34 40  1  0  0  0  0
 35 48  1  0  0  0  0
 36 37  1  0  0  0  0
 36 45  1  1  0  0  0
 37 38  1  0  0  0  0
 37 44  1  1  0  0  0
 38 39  1  0  0  0  0
 38 40  1  6  0  0  0
 43 47  1  0  0  0  0
 46 48  1  0  0  0  0
 48 43  1  6  0  0  0
M  END
>  <CHROM.1>
-178.97974497,-169.81095075,-179.30724643,75.61520501,73.85403877,61.65697116
-147.32093276,42.53840624,-127.62975498,171.16714883,58.71072260,-155.38844536
139.01175111,25.62521850,13.85046518,9.61471636,2.14849671,-1.11923463,0.31217460

>  <Name>
ligand

>  <RI>
0

>  <Rbt.Current_Directory>
/home/itssahil/PROJECTS/Mol_Feturizer/New_Systems/rnas/4PDQ

>  <Rbt.Executable>
rbdock ($Id: //depot/dev/client3/rdock/2013.1/src/exe/rbdock.cxx#4 $)

>  <Rbt.Library>
libRbt.so (2013.1, Build901 2013/11/27)

>  <Rbt.Parameter_File>
/export/apps/rDock/src/rDock_2013.1_src/data/scripts/dock_solv.prm

>  <Rbt.Receptor>
prm/blind_docking_60.prm

>  <SCORE>
0.87745

>  <SCORE.INTER>
1.25521

>  <SCORE.INTER.CONST>
1

>  <SCORE.INTER.POLAR>
0

>  <SCORE.INTER.ROT>
13

>  <SCORE.INTER.SOLV>
30.6397

>  <SCORE.INTER.VDW>
-21.6431

>  <SCORE.INTER.norm>
0.0256165

>  <SCORE.INTRA>
-1.33672

>  <SCORE.INTRA.DIHEDRAL>
-17.4748

>  <SCORE.INTRA.DIHEDRAL.0>
34.5115

>  <SCORE.INTRA.POLAR>
0

>  <SCORE.INTRA.POLAR.0>
0

>  <SCORE.INTRA.REPUL>
0

>  <SCORE.INTRA.REPUL.0>
0

>  <SCORE.INTRA.SOLV>
4.60811

>  <SCORE.INTRA.SOLV.lig_0>
-122.812

>  <SCORE.INTRA.VDW>
5.09664

>  <SCORE.INTRA.VDW.0>
-7.46208

>  <SCORE.INTRA.norm>
-0.02728

>  <SCORE.RESTR>
0.958961

>  <SCORE.RESTR.CAVITY>
0.958961

>  <SCORE.RESTR.norm>
0.0195706

>  <SCORE.SYSTEM>
0

>  <SCORE.SYSTEM.CONST>
0

>  <SCORE.SYSTEM.DIHEDRAL>
0

>  <SCORE.SYSTEM.SOLV>
0

>  <SCORE.SYSTEM.norm>
0

>  <SCORE.heavy>
49

>  <SCORE.norm>
0.0179072

>  <RMSD>
10.433

$$$$
ligand
 OpenBabel11021811513D
libRbt.so/2013.1/901 2013/11/27
 49 52  0  0  0  0  0  0  0  0999 V2000
   23.5849   13.6374   11.0596 C   0  0  2  0  0  0  0  0  0  0  0  0
   24.2827   13.0450   10.0040 O   0  0  0  0  0  0  0  0  0  0  0  0
   22.4612   14.5808   10.4901 C   0  0  2  0  0  0  0  0  0  0  0  0
   21.5166   13.7636    9.6227 N   0  0  0  0  0  0  0  0  0  0  0  0
   25.3137    6.7899   11.6116 O   0  0  0  0  0  0  0  0  0  0  0  0
   23.0903   15.7483    9.6943 C   0  0  2  0  0  0  0  0  0  0  0  0
   30.2869    4.6243   11.4152 N   0  0  0  0  0  0  0  0  0  0  0  0
   24.0550   16.5465   10.5853 C   0  0  2  0  0  0  0  0  0  0  0  0
   25.2033   15.6263   11.1807 C   0  0  2  0  0  0  0  0  0  0  0  0
   24.5354   14.4598   11.9111 O   0  0  0  0  0  0  0  0  0  0  0  0
   26.1434   16.4293   12.1257 C   0  0  0  0  0  0  0  0  0  0  0  0
   26.5794   17.6667   11.5848 N   0  0  0  0  0  0  0  0  0  0  0  0
   26.3537    9.5008   11.4013 C   0  0  2  0  0  0  0  0  0  0  0  0
   27.2215    8.2871   11.3734 N   0  0  0  0  0  0  0  0  0  0  0  0
   25.4140    9.4359   10.1016 C   0  0  0  0  0  0  0  0  0  0  0  0
   24.4426   10.6742   10.0644 C   0  0  2  0  0  0  0  0  0  0  0  0
   23.5899   10.6368    8.8672 N   0  0  0  0  0  0  0  0  0  0  0  0
   25.2513   11.9866   10.0404 C   0  0  2  0  0  0  0  0  0  0  0  0
   26.1930   12.0804   11.3082 C   0  0  2  0  0  0  0  0  0  0  0  0
   26.9120   13.3648   11.1956 O   0  0  0  0  0  0  0  0  0  0  0  0
   27.2205   10.8373   11.2874 C   0  0  1  0  0  0  0  0  0  0  0  0
   28.0446   10.9421   12.4053 O   0  0  0  0  0  0  0  0  0  0  0  0
   27.3624   13.9105   10.1176 C   0  0  1  0  0  0  0  0  0  0  0  0
   28.7600   14.5866   10.2359 C   0  0  2  0  0  0  0  0  0  0  0  0
   28.5670   15.9224   10.5801 O   0  0  0  0  0  0  0  0  0  0  0  0
   29.1921   14.4432    8.8356 C   0  0  1  0  0  0  0  0  0  0  0  0
   28.7204   13.0479    8.3219 C   0  0  2  0  0  0  0  0  0  0  0  0
   27.4725   13.0073    8.9696 O   0  0  0  0  0  0  0  0  0  0  0  0
   29.6576   11.8539    8.5091 C   0  0  0  0  0  0  0  0  0  0  0  0
   30.9568   12.3164    8.1913 O   0  0  0  0  0  0  0  0  0  0  0  0
   27.8893   15.2880    6.9349 C   0  0  2  0  0  0  0  0  0  0  0  0
   28.5701   15.5794    8.0817 O   0  0  0  0  0  0  0  0  0  0  0  0
   27.3483   16.5201    6.2713 C   0  0  1  0  0  0  0  0  0  0  0  0
   25.2105   11.7209    7.1341 N   0  0  0  0  0  0  0  0  0  0  0  0
   26.9197    4.5062   11.2749 O   0  0  0  0  0  0  0  0  0  0  0  0
   26.5328   16.1064    4.9853 C   0  0  2  0  0  0  0  0  0  0  0  0
   25.3641   15.1024    5.2770 C   0  0  1  0  0  0  0  0  0  0  0  0
   25.9101   13.9225    5.9057 C   0  0  1  0  0  0  0  0  0  0  0  0
   26.7004   14.2935    7.1463 O   0  0  0  0  0  0  0  0  0  0  0  0
   24.7507   12.8916    6.2605 C   0  0  0  0  0  0  0  0  0  0  0  0
   26.4727   17.1945    7.1459 N   0  0  0  0  0  0  0  0  0  0  0  0
   22.2580   16.4400    9.3266 O   0  0  0  0  0  0  0  0  0  0  0  0
   28.3927    5.9932   10.3922 C   0  0  0  0  0  0  0  0  0  0  0  0
   24.6294   15.6039    6.0024 O   0  0  0  0  0  0  0  0  0  0  0  0
   27.2516   15.5761    4.2606 O   0  0  0  0  0  0  0  0  0  0  0  0
   26.5359    6.9591   11.4968 C   0  0  0  0  0  0  0  0  0  0  0  0
   29.4047    5.0594   10.3928 C   0  0  0  0  0  0  0  0  0  0  0  0
   27.6032    5.7472   11.4370 C   0  0  1  0  0  0  0  0  0  0  0  0
   23.3517   17.1195   11.6597 F   0  0  0  0  0  0  0  0  0  0  0  0
  1  2  1  6  0  0  0
  1 10  1  0  0  0  0
  1  3  1  0  0  0  0
  3  4  1  6  0  0  0
  3  6  1  0  0  0  0
  5 46  2  0  0  0  0
  6 42  1  1  0  0  0
  6  8  1  0  0  0  0
  7 47  1  0  0  0  0
  8  9  1  0  0  0  0
  8 49  1  1  0  0  0
  9 10  1  0  0  0  0
  9 11  1  1  0  0  0
 11 12  1  0  0  0  0
 13 14  1  6  0  0  0
 13 15  1  0  0  0  0
 13 21  1  0  0  0  0
 14 46  1  0  0  0  0
 15 16  1  0  0  0  0
 16 17  1  6  0  0  0
 16 18  1  0  0  0  0
 18  2  1  1  0  0  0
 18 19  1  0  0  0  0
 19 20  1  6  0  0  0
 19 21  1  0  0  0  0
 21 22  1  1  0  0  0
 23 20  1  1  0  0  0
 23 24  1  0  0  0  0
 23 28  1  0  0  0  0
 24 25  1  6  0  0  0
 24 26  1  0  0  0  0
 26 27  1  0  0  0  0
 26 32  1  6  0  0  0
 27 28  1  0  0  0  0
 27 29  1  1  0  0  0
 29 30  1  0  0  0  0
 31 32  1  1  0  0  0
 31 33  1  0  0  0  0
 31 39  1  0  0  0  0
 33 36  1  0  0  0  0
 33 41  1  1  0  0  0
 34 40  1  0  0  0  0
 35 48  1  0  0  0  0
 36 37  1  0  0  0  0
 36 45  1  6  0  0  0
 37 38  1  0  0  0  0
 37 44  1  1  0  0  0
 38 39  1  0  0  0  0
 38 40  1  1  0  0  0
 43 47  1  0  0  0  0
 46 48  1  0  0  0  0
 48 43  1  6  0  0  0
M  END
>  <CHROM.1>
-170.38791555,83.40069148,-47.61508617,-64.33492326,-37.77906372,-139.62024463
-129.66289741,-42.03906656,-178.71824019,-170.43615067,-49.66122352,-66.94971895
11.14449344,26.31101460,12.71812357,9.48985217,1.85551681,0.64412327,-0.45263800

>  <Name>
ligand

>  <RI>
0

>  <Rbt.Current_Directory>
/home/itssahil/PROJECTS/Mol_Feturizer/New_Systems/rnas/4PDQ

>  <Rbt.Executable>
rbdock ($Id: //depot/dev/client3/rdock/2013.1/src/exe/rbdock.cxx#4 $)

>  <Rbt.Library>
libRbt.so (2013.1, Build901 2013/11/27)

>  <Rbt.Parameter_File>
/export/apps/rDock/src/rDock_2013.1_src/data/scripts/dock_solv.prm

>  <Rbt.Receptor>
prm/blind_docking_100.prm

>  <SCORE>
14.2109

>  <SCORE.INTER>
6.95677

>  <SCORE.INTER.CONST>
1

>  <SCORE.INTER.POLAR>
0

>  <SCORE.INTER.ROT>
13

>  <SCORE.INTER.SOLV>
34.5302

>  <SCORE.INTER.VDW>
-19.1389

>  <SCORE.INTER.norm>
0.141975

>  <SCORE.INTRA>
4.44953

>  <SCORE.INTRA.DIHEDRAL>
-13.8096

>  <SCORE.INTRA.DIHEDRAL.0>
34.5115

>  <SCORE.INTRA.POLAR>
0

>  <SCORE.INTRA.POLAR.0>
0

>  <SCORE.INTRA.REPUL>
0.166762

>  <SCORE.INTRA.REPUL.0>
0

>  <SCORE.INTRA.SOLV>
9.09378

>  <SCORE.INTRA.SOLV.lig_0>
-122.812

>  <SCORE.INTRA.VDW>
5.97364

>  <SCORE.INTRA.VDW.0>
-7.46208

>  <SCORE.INTRA.norm>
0.0908067

>  <SCORE.RESTR>
2.80459

>  <SCORE.RESTR.CAVITY>
2.80459

>  <SCORE.RESTR.norm>
0.0572365

>  <SCORE.SYSTEM>
0

>  <SCORE.SYSTEM.CONST>
0

>  <SCORE.SYSTEM.DIHEDRAL>
0

>  <SCORE.SYSTEM.SOLV>
0

>  <SCORE.SYSTEM.norm>
0

>  <SCORE.heavy>
49

>  <SCORE.norm>
0.290018

>  <RMSD>
10.436

$$$$
ligand
 OpenBabel11021811513D
libRbt.so/2013.1/901 2013/11/27
 49 52  0  0  0  0  0  0  0  0999 V2000
   27.2101   13.2529    9.6324 C   0  0  2  0  0  0  0  0  0  0  0  0
   25.9749   12.6364    9.4171 O   0  0  0  0  0  0  0  0  0  0  0  0
   27.2019   14.6936    8.9989 C   0  0  2  0  0  0  0  0  0  0  0  0
   26.0850   15.5096    9.6308 N   0  0  0  0  0  0  0  0  0  0  0  0
   27.7340    7.0658   12.5613 O   0  0  0  0  0  0  0  0  0  0  0  0
   27.0376   14.6062    7.4636 C   0  0  2  0  0  0  0  0  0  0  0  0
   23.6678    3.8932   11.3549 N   0  0  0  0  0  0  0  0  0  0  0  0
   28.1654   13.7611    6.8507 C   0  0  2  0  0  0  0  0  0  0  0  0
   28.2065   12.2991    7.4674 C   0  0  2  0  0  0  0  0  0  0  0  0
   28.3152   12.4361    8.9872 O   0  0  0  0  0  0  0  0  0  0  0  0
   29.3849   11.4677    6.8828 C   0  0  0  0  0  0  0  0  0  0  0  0
   30.6668   11.9524    7.2512 N   0  0  0  0  0  0  0  0  0  0  0  0
   26.3182    8.4305   10.4147 C   0  0  2  0  0  0  0  0  0  0  0  0
   25.9371    7.0773   10.9154 N   0  0  0  0  0  0  0  0  0  0  0  0
   25.8346    9.4922   11.5170 C   0  0  0  0  0  0  0  0  0  0  0  0
   26.2211   10.9537   11.0779 C   0  0  2  0  0  0  0  0  0  0  0  0
   25.7653   11.9380   12.0705 N   0  0  0  0  0  0  0  0  0  0  0  0
   25.5672   11.2950    9.7240 C   0  0  2  0  0  0  0  0  0  0  0  0
   26.0205   10.2629    8.6140 C   0  0  2  0  0  0  0  0  0  0  0  0
   25.3516   10.6778    7.3651 O   0  0  0  0  0  0  0  0  0  0  0  0
   25.5553    8.7834    9.0567 C   0  0  1  0  0  0  0  0  0  0  0  0
   25.9559    7.8919    8.0645 O   0  0  0  0  0  0  0  0  0  0  0  0
   25.4868   10.1456    6.1983 C   0  0  1  0  0  0  0  0  0  0  0  0
   24.3843   10.5066    5.1597 C   0  0  2  0  0  0  0  0  0  0  0  0
   23.3767    9.5490    5.2475 O   0  0  0  0  0  0  0  0  0  0  0  0
   25.1800   10.3469    3.9311 C   0  0  1  0  0  0  0  0  0  0  0  0
   26.6125   10.9006    4.2045 C   0  0  2  0  0  0  0  0  0  0  0  0
   26.7542   10.4451    5.5278 O   0  0  0  0  0  0  0  0  0  0  0  0
   26.8801   12.3811    3.9298 C   0  0  0  0  0  0  0  0  0  0  0  0
   28.2722   12.5703    4.0995 O   0  0  0  0  0  0  0  0  0  0  0  0
   25.6922    8.4908    2.4093 C   0  0  2  0  0  0  0  0  0  0  0  0
   25.1755    8.8829    3.6104 O   0  0  0  0  0  0  0  0  0  0  0  0
   25.4397    7.0377    2.1338 C   0  0  1  0  0  0  0  0  0  0  0  0
   30.0942    8.4343   -0.4049 N   0  0  0  0  0  0  0  0  0  0  0  0
   27.1333    4.4490   13.3859 O   0  0  0  0  0  0  0  0  0  0  0  0
   26.1059    6.6425    0.7589 C   0  0  2  0  0  0  0  0  0  0  0  0
   27.6450    6.9360    0.6978 C   0  0  1  0  0  0  0  0  0  0  0  0
   27.8617    8.3403    0.9561 C   0  0  1  0  0  0  0  0  0  0  0  0
   27.2296    8.7464    2.2739 O   0  0  0  0  0  0  0  0  0  0  0  0
   29.4174    8.6761    0.9472 C   0  0  0  0  0  0  0  0  0  0  0  0
   26.0214    6.2465    3.1447 N   0  0  0  0  0  0  0  0  0  0  0  0
   27.0756   15.6604    7.0239 O   0  0  0  0  0  0  0  0  0  0  0  0
   25.0355    5.2449   13.0314 C   0  0  0  0  0  0  0  0  0  0  0  0
   28.1627    6.3229    1.5186 O   0  0  0  0  0  0  0  0  0  0  0  0
   25.6158    7.2712   -0.0703 O   0  0  0  0  0  0  0  0  0  0  0  0
   26.7676    6.5051   12.0252 C   0  0  0  0  0  0  0  0  0  0  0  0
   24.0675    5.0505   12.0717 C   0  0  0  0  0  0  0  0  0  0  0  0
   26.2249    5.0476   12.4641 C   0  0  1  0  0  0  0  0  0  0  0  0
   29.4080   14.3734    7.0921 F   0  0  0  0  0  0  0  0  0  0  0  0
  1  2  1  6  0  0  0
  1 10  1  0  0  0  0
  1  3  1  0  0  0  0
  3  4  1  1  0  0  0
  3  6  1  0  0  0  0
  5 46  2  0  0  0  0
  6 42  1  6  0  0  0
  6  8  1  0  0  0  0
  7 47  1  0  0  0  0
  8  9  1  0  0  0  0
  8 49  1  1  0  0  0
  9 10  1  0  0  0  0
  9 11  1  6  0  0  0
 11 12  1  0  0  0  0
 13 14  1  1  0  0  0
 13 15  1  0  0  0  0
 13 21  1  0  0  0  0
 14 46  1  0  0  0  0
 15 16  1  0  0  0  0
 16 17  1  1  0  0  0
 16 18  1  0  0  0  0
 18  2  1  6  0  0  0
 18 19  1  0  0  0  0
 19 20  1  6  0  0  0
 19 21  1  0  0  0  0
 21 22  1  6  0  0  0
 23 20  1  1  0  0  0
 23 24  1  0  0  0  0
 23 28  1  0  0  0  0
 24 25  1  6  0  0  0
 24 26  1  0  0  0  0
 26 27  1  0  0  0  0
 26 32  1  1  0  0  0
 27 28  1  0  0  0  0
 27 29  1  1  0  0  0
 29 30  1  0  0  0  0
 31 32  1  1  0  0  0
 31 33  1  0  0  0  0
 31 39  1  0  0  0  0
 33 36  1  0  0  0  0
 33 41  1  1  0  0  0
 34 40  1  0  0  0  0
 35 48  1  0  0  0  0
 36 37  1  0  0  0  0
 36 45  1  6  0  0  0
 37 38  1  0  0  0  0
 37 44  1  1  0  0  0
 38 39  1  0  0  0  0
 38 40  1  1  0  0  0
 43 47  1  0  0  0  0
 46 48  1  0  0  0  0
 48 43  1  1  0  0  0
M  END
>  <CHROM.1>
174.68242321,38.32624252,66.60183067,-74.94552139,176.86870042,163.31484526
171.10467931,-172.91868279,-171.47975526,63.16984168,65.82564039,-145.12094900
-8.83231036,26.66242091,9.73226852,6.89086556,-2.07462287,-1.33274803,-2.02522239

>  <Name>
ligand

>  <RI>
0

>  <Rbt.Current_Directory>
/home/itssahil/PROJECTS/Mol_Feturizer/New_Systems/rnas/4PDQ

>  <Rbt.Executable>
rbdock ($Id: //depot/dev/client3/rdock/2013.1/src/exe/rbdock.cxx#4 $)

>  <Rbt.Library>
libRbt.so (2013.1, Build901 2013/11/27)

>  <Rbt.Parameter_File>
/export/apps/rDock/src/rDock_2013.1_src/data/scripts/dock_solv.prm

>  <Rbt.Receptor>
prm/pocket_docking_6.prm

>  <SCORE>
-10.6559

>  <SCORE.INTER>
1.85919

>  <SCORE.INTER.CONST>
1

>  <SCORE.INTER.POLAR>
0

>  <SCORE.INTER.ROT>
13

>  <SCORE.INTER.SOLV>
14.5849

>  <SCORE.INTER.VDW>
-15.8888

>  <SCORE.INTER.norm>
0.0379426

>  <SCORE.INTRA>
-12.5151

>  <SCORE.INTRA.DIHEDRAL>
-25.3806

>  <SCORE.INTRA.DIHEDRAL.0>
34.5115

>  <SCORE.INTRA.POLAR>
0

>  <SCORE.INTRA.POLAR.0>
0

>  <SCORE.INTRA.REPUL>
0

>  <SCORE.INTRA.REPUL.0>
0

>  <SCORE.INTRA.SOLV>
-0.289933

>  <SCORE.INTRA.SOLV.lig_0>
-122.812

>  <SCORE.INTRA.VDW>
0.320168

>  <SCORE.INTRA.VDW.0>
-7.46208

>  <SCORE.INTRA.norm>
-0.255411

>  <SCORE.RESTR>
0

>  <SCORE.RESTR.CAVITY>
0

>  <SCORE.RESTR.norm>
0

>  <SCORE.SYSTEM>
0

>  <SCORE.SYSTEM.CONST>
0

>  <SCORE.SYSTEM.DIHEDRAL>
0

>  <SCORE.SYSTEM.SOLV>
0

>  <SCORE.SYSTEM.norm>
0

>  <SCORE.heavy>
49

>  <SCORE.norm>
-0.217468

>  <RMSD>
10.436

$$$$
ligand
 OpenBabel11021811513D
libRbt.so/2013.1/901 2013/11/27
 49 52  0  0  0  0  0  0  0  0999 V2000
   23.8112   16.6363    7.8838 C   0  0  2  0  0  0  0  0  0  0  0  0
   23.9112   15.9486    9.0958 O   0  0  0  0  0  0  0  0  0  0  0  0
   23.2002   15.6894    6.7850 C   0  0  2  0  0  0  0  0  0  0  0  0
   21.8286   15.2169    7.2410 N   0  0  0  0  0  0  0  0  0  0  0  0
   25.6959   17.7895   14.2366 O   0  0  0  0  0  0  0  0  0  0  0  0
   24.1469   14.4967    6.5148 C   0  0  2  0  0  0  0  0  0  0  0  0
   30.3871   17.8151   14.3511 N   0  0  0  0  0  0  0  0  0  0  0  0
   25.5310   14.9992    6.0751 C   0  0  2  0  0  0  0  0  0  0  0  0
   26.1793   15.9605    7.1592 C   0  0  2  0  0  0  0  0  0  0  0  0
   25.1872   17.0924    7.4328 O   0  0  0  0  0  0  0  0  0  0  0  0
   27.5554   16.5093    6.6829 C   0  0  0  0  0  0  0  0  0  0  0  0
   27.5495   17.8986    6.3933 N   0  0  0  0  0  0  0  0  0  0  0  0
   27.0624   17.4032   11.6953 C   0  0  2  0  0  0  0  0  0  0  0  0
   27.7221   17.9908   12.8980 N   0  0  0  0  0  0  0  0  0  0  0  0
   25.7939   18.3269   11.3573 C   0  0  0  0  0  0  0  0  0  0  0  0
   25.0490   17.7897   10.0787 C   0  0  2  0  0  0  0  0  0  0  0  0
   23.8727   18.6161    9.7705 N   0  0  0  0  0  0  0  0  0  0  0  0
   24.5746   16.3405   10.3066 C   0  0  2  0  0  0  0  0  0  0  0  0
   25.8024   15.4027   10.6468 C   0  0  2  0  0  0  0  0  0  0  0  0
   25.2480   14.0479   10.8381 O   0  0  0  0  0  0  0  0  0  0  0  0
   26.5077   15.9360   11.9957 C   0  0  1  0  0  0  0  0  0  0  0  0
   27.5795   15.0940   12.2822 O   0  0  0  0  0  0  0  0  0  0  0  0
   25.7930   12.9306   10.4955 C   0  0  1  0  0  0  0  0  0  0  0  0
   25.4293   11.7024   11.3808 C   0  0  2  0  0  0  0  0  0  0  0  0
   26.3741   11.6083   12.3999 O   0  0  0  0  0  0  0  0  0  0  0  0
   25.6101   10.6445   10.3728 C   0  0  1  0  0  0  0  0  0  0  0  0
   25.0707   11.1754    9.0088 C   0  0  2  0  0  0  0  0  0  0  0  0
   25.5149   12.5052    9.1217 O   0  0  0  0  0  0  0  0  0  0  0  0
   23.5961   10.9444    8.6752 C   0  0  0  0  0  0  0  0  0  0  0  0
   22.8579   11.7918    9.5351 O   0  0  0  0  0  0  0  0  0  0  0  0
   27.4910    9.1357   10.8306 C   0  0  2  0  0  0  0  0  0  0  0  0
   27.0771   10.3393   10.3372 O   0  0  0  0  0  0  0  0  0  0  0  0
   26.9925    7.9860   10.0055 C   0  0  1  0  0  0  0  0  0  0  0  0
   27.2573    8.7249   15.2566 N   0  0  0  0  0  0  0  0  0  0  0  0
   26.8636   19.4067   16.2734 O   0  0  0  0  0  0  0  0  0  0  0  0
   27.4635    6.6295   10.6596 C   0  0  2  0  0  0  0  0  0  0  0  0
   27.0027    6.4552   12.1483 C   0  0  1  0  0  0  0  0  0  0  0  0
   27.5020    7.5668   12.9233 C   0  0  1  0  0  0  0  0  0  0  0  0
   27.0628    8.8848   12.3142 O   0  0  0  0  0  0  0  0  0  0  0  0
   27.0202    7.4539   14.4360 C   0  0  0  0  0  0  0  0  0  0  0  0
   25.5835    7.9899    9.9736 N   0  0  0  0  0  0  0  0  0  0  0  0
   23.7015   13.8474    5.6863 O   0  0  0  0  0  0  0  0  0  0  0  0
   28.3812   17.7526   15.9263 C   0  0  0  0  0  0  0  0  0  0  0  0
   25.8553    6.4688   12.1754 O   0  0  0  0  0  0  0  0  0  0  0  0
   28.6137    6.6150   10.6653 O   0  0  0  0  0  0  0  0  0  0  0  0
   26.8832   18.1291   14.1332 C   0  0  0  0  0  0  0  0  0  0  0  0
   29.2739   17.2365   15.0137 C   0  0  0  0  0  0  0  0  0  0  0  0
   27.7385   18.7661   15.3474 C   0  0  1  0  0  0  0  0  0  0  0  0
   25.4206   15.7118    4.8679 F   0  0  0  0  0  0  0  0  0  0  0  0
  1  2  1  1  0  0  0
  1 10  1  0  0  0  0
  1  3  1  0  0  0  0
  3  4  1  1  0  0  0
  3  6  1  0  0  0  0
  5 46  2  0  0  0  0
  6 42  1  6  0  0  0
  6  8  1  0  0  0  0
  7 47  1  0  0  0  0
  8  9  1  0  0  0  0
  8 49  1  6  0  0  0
  9 10  1  0  0  0  0
  9 11  1  6  0  0  0
 11 12  1  0  0  0  0
 13 14  1  1  0  0  0
 13 15  1  0  0  0  0
 13 21  1  0  0  0  0
 14 46  1  0  0  0  0
 15 16  1  0  0  0  0
 16 17  1  1  0  0  0
 16 18  1  0  0  0  0
 18  2  1  6  0  0  0
 18 19  1  0  0  0  0
 19 20  1  1  0  0  0
 19 21  1  0  0  0  0
 21 22  1  6  0  0  0
 23 20  1  1  0  0  0
 23 24  1  0  0  0  0
 23 28  1  0  0  0  0
 24 25  1  1  0  0  0
 24 26  1  0  0  0  0
 26 27  1  0  0  0  0
 26 32  1  6  0  0  0
 27 28  1  0  0  0  0
 27 29  1  1  0  0  0
 29 30  1  0  0  0  0
 31 32  1  6  0  0  0
 31 33  1  0  0  0  0
 31 39  1  0  0  0  0
 33 36  1  0  0  0  0
 33 41  1  1  0  0  0
 34 40  1  0  0  0  0
 35 48  1  0  0  0  0
 36 37  1  0  0  0  0
 36 45  1  1  0  0  0
 37 38  1  0  0  0  0
 37 44  1  6  0  0  0
 38 39  1  0  0  0  0
 38 40  1  1  0  0  0
 43 47  1  0  0  0  0
 46 48  1  0  0  0  0
 48 43  1  1  0  0  0
M  END
>  <CHROM.1>
170.21045391,6.38380758,110.92372493,57.81594050,143.45326298,150.17180299
110.07335406,70.71341107,66.08880276,-168.09794206,61.30546082,-175.88219823
-25.59784332,26.06215862,13.68902008,10.62012196,1.71438930,-1.16464645,0.06450230

>  <Name>
ligand

>  <RI>
0

>  <Rbt.Current_Directory>
/home/itssahil/PROJECTS/Mol_Feturizer/New_Systems/rnas/4PDQ

>  <Rbt.Executable>
rbdock ($Id: //depot/dev/client3/rdock/2013.1/src/exe/rbdock.cxx#4 $)

>  <Rbt.Library>
libRbt.so (2013.1, Build901 2013/11/27)

>  <Rbt.Parameter_File>
/export/apps/rDock/src/rDock_2013.1_src/data/scripts/dock_solv.prm

>  <Rbt.Receptor>
prm/blind_docking_100.prm

>  <SCORE>
20.3206

>  <SCORE.INTER>
3.15162

>  <SCORE.INTER.CONST>
1

>  <SCORE.INTER.POLAR>
0

>  <SCORE.INTER.ROT>
13

>  <SCORE.INTER.SOLV>
27.4051

>  <SCORE.INTER.VDW>
-19.3006

>  <SCORE.INTER.norm>
0.0643188

>  <SCORE.INTRA>
5.42588

>  <SCORE.INTRA.DIHEDRAL>
-4.36601

>  <SCORE.INTRA.DIHEDRAL.0>
34.5115

>  <SCORE.INTRA.POLAR>
0

>  <SCORE.INTRA.POLAR.0>
0

>  <SCORE.INTRA.REPUL>
0

>  <SCORE.INTRA.REPUL.0>
0

>  <SCORE.INTRA.SOLV>
4.10085

>  <SCORE.INTRA.SOLV.lig_0>
-122.812

>  <SCORE.INTRA.VDW>
5.55846

>  <SCORE.INTRA.VDW.0>
-7.46208

>  <SCORE.INTRA.norm>
0.110732

>  <SCORE.RESTR>
11.7431

>  <SCORE.RESTR.CAVITY>
11.7431

>  <SCORE.RESTR.norm>
0.239654

>  <SCORE.SYSTEM>
0

>  <SCORE.SYSTEM.CONST>
0

>  <SCORE.SYSTEM.DIHEDRAL>
0

>  <SCORE.SYSTEM.SOLV>
0

>  <SCORE.SYSTEM.norm>
0

>  <SCORE.heavy>
49

>  <SCORE.norm>
0.414705

>  <RMSD>
10.450

$$$$
ligand
 OpenBabel11021811513D
libRbt.so/2013.1/901 2013/11/27
 49 52  0  0  0  0  0  0  0  0999 V2000
   27.9576    7.9940   10.5643 C   0  0  2  0  0  0  0  0  0  0  0  0
   26.8078    8.4803    9.9370 O   0  0  0  0  0  0  0  0  0  0  0  0
   27.6733    6.5656   11.1608 C   0  0  2  0  0  0  0  0  0  0  0  0
   27.2471    5.6325   10.0382 N   0  0  0  0  0  0  0  0  0  0  0  0
   23.6332   14.2130    7.8613 O   0  0  0  0  0  0  0  0  0  0  0  0
   26.5946    6.6483   12.2659 C   0  0  2  0  0  0  0  0  0  0  0  0
   27.5389   14.5696    5.1890 N   0  0  0  0  0  0  0  0  0  0  0  0
   27.0387    7.6113   13.3781 C   0  0  2  0  0  0  0  0  0  0  0  0
   27.3370    9.0644   12.8134 C   0  0  2  0  0  0  0  0  0  0  0  0
   28.3664    8.9268   11.6901 O   0  0  0  0  0  0  0  0  0  0  0  0
   27.8394   10.0189   13.9352 C   0  0  0  0  0  0  0  0  0  0  0  0
   26.8869   10.2484   14.9619 N   0  0  0  0  0  0  0  0  0  0  0  0
   25.7936   12.2770    8.1042 C   0  0  2  0  0  0  0  0  0  0  0  0
   25.8165   13.4111    7.1345 N   0  0  0  0  0  0  0  0  0  0  0  0
   27.3210   11.9183    8.4432 C   0  0  0  0  0  0  0  0  0  0  0  0
   27.3897   10.7402    9.4851 C   0  0  2  0  0  0  0  0  0  0  0  0
   28.7847   10.3886    9.7887 N   0  0  0  0  0  0  0  0  0  0  0  0
   26.6878    9.4881    8.9223 C   0  0  2  0  0  0  0  0  0  0  0  0
   25.1785    9.8091    8.5731 C   0  0  2  0  0  0  0  0  0  0  0  0
   24.5982    8.5550    8.0535 O   0  0  0  0  0  0  0  0  0  0  0  0
   25.1378   10.9725    7.4568 C   0  0  1  0  0  0  0  0  0  0  0  0
   23.8031   11.2346    7.1576 O   0  0  0  0  0  0  0  0  0  0  0  0
   24.8249    8.0115    6.9064 C   0  0  1  0  0  0  0  0  0  0  0  0
   24.1465    8.7014    5.6864 C   0  0  2  0  0  0  0  0  0  0  0  0
   22.9039    8.1045    5.4874 O   0  0  0  0  0  0  0  0  0  0  0  0
   25.1116    8.3066    4.6468 C   0  0  1  0  0  0  0  0  0  0  0  0
   26.5444    8.3861    5.2585 C   0  0  2  0  0  0  0  0  0  0  0  0
   26.2403    7.9043    6.5445 O   0  0  0  0  0  0  0  0  0  0  0  0
   27.3017    9.7109    5.1564 C   0  0  0  0  0  0  0  0  0  0  0  0
   28.5242    9.5225    5.8439 O   0  0  0  0  0  0  0  0  0  0  0  0
   25.5032    6.3108    3.2732 C   0  0  2  0  0  0  0  0  0  0  0  0
   24.7369    6.9178    4.2259 O   0  0  0  0  0  0  0  0  0  0  0  0
   24.9124    5.0085    2.8193 C   0  0  1  0  0  0  0  0  0  0  0  0
   30.3950    4.8313    2.2377 N   0  0  0  0  0  0  0  0  0  0  0  0
   23.6784   16.3763    6.0796 O   0  0  0  0  0  0  0  0  0  0  0  0
   25.8719    4.3396    1.7601 C   0  0  2  0  0  0  0  0  0  0  0  0
   27.3294    4.1069    2.2896 C   0  0  1  0  0  0  0  0  0  0  0  0
   27.8795    5.3740    2.7107 C   0  0  1  0  0  0  0  0  0  0  0  0
   26.9743    6.0387    3.7304 O   0  0  0  0  0  0  0  0  0  0  0  0
   29.3459    5.1787    3.2978 C   0  0  0  0  0  0  0  0  0  0  0  0
   24.7871    4.1281    3.9128 N   0  0  0  0  0  0  0  0  0  0  0  0
   26.4357    5.6074   12.7105 O   0  0  0  0  0  0  0  0  0  0  0  0
   25.9204   16.1511    6.3670 C   0  0  0  0  0  0  0  0  0  0  0  0
   27.2768    3.4048    3.1962 O   0  0  0  0  0  0  0  0  0  0  0  0
   25.9568    5.0468    0.8569 O   0  0  0  0  0  0  0  0  0  0  0  0
   24.6252   14.3219    7.1265 C   0  0  0  0  0  0  0  0  0  0  0  0
   26.8981   15.8058    5.4609 C   0  0  0  0  0  0  0  0  0  0  0  0
   24.8043   15.5022    6.0374 C   0  0  1  0  0  0  0  0  0  0  0  0
   28.2101    7.1298   13.9891 F   0  0  0  0  0  0  0  0  0  0  0  0
  1  2  1  1  0  0  0
  1 10  1  0  0  0  0
  1  3  1  0  0  0  0
  3  4  1  6  0  0  0
  3  6  1  0  0  0  0
  5 46  2  0  0  0  0
  6 42  1  1  0  0  0
  6  8  1  0  0  0  0
  7 47  1  0  0  0  0
  8  9  1  0  0  0  0
  8 49  1  6  0  0  0
  9 10  1  0  0  0  0
  9 11  1  1  0  0  0
 11 12  1  0  0  0  0
 13 14  1  6  0  0  0
 13 15  1  0  0  0  0
 13 21  1  0  0  0  0
 14 46  1  0  0  0  0
 15 16  1  0  0  0  0
 16 17  1  6  0  0  0
 16 18  1  0  0  0  0
 18  2  1  1  0  0  0
 18 19  1  0  0  0  0
 19 20  1  6  0  0  0
 19 21  1  0  0  0  0
 21 22  1  1  0  0  0
 23 20  1  1  0  0  0
 23 24  1  0  0  0  0
 23 28  1  0  0  0  0
 24 25  1  6  0  0  0
 24 26  1  0  0  0  0
 26 27  1  0  0  0  0
 26 32  1  1  0  0  0
 27 28  1  0  0  0  0
 27 29  1  1  0  0  0
 29 30  1  0  0  0  0
 31 32  1  1  0  0  0
 31 33  1  0  0  0  0
 31 39  1  0  0  0  0
 33 36  1  0  0  0  0
 33 41  1  1  0  0  0
 34 40  1  0  0  0  0
 35 48  1  0  0  0  0
 36 37  1  0  0  0  0
 36 45  1  6  0  0  0
 37 38  1  0  0  0  0
 37 44  1  1  0  0  0
 38 39  1  0  0  0  0
 38 40  1  1  0  0  0
 43 47  1  0  0  0  0
 46 48  1  0  0  0  0
 48 43  1  1  0  0  0
M  END
>  <CHROM.1>
-158.01496841,-54.93187008,-63.24830867,-153.09553928,-72.87915199,-74.65301478
-179.01113853,177.02299819,-172.41345713,70.81784705,-65.03911456,-134.56634415
0.88982967,26.37599346,8.93632212,7.26205157,-1.61282205,1.32233605,-2.20393128

>  <Name>
ligand

>  <RI>
0

>  <Rbt.Current_Directory>
/home/itssahil/PROJECTS/Mol_Feturizer/New_Systems/rnas/4PDQ

>  <Rbt.Executable>
rbdock ($Id: //depot/dev/client3/rdock/2013.1/src/exe/rbdock.cxx#4 $)

>  <Rbt.Library>
libRbt.so (2013.1, Build901 2013/11/27)

>  <Rbt.Parameter_File>
/export/apps/rDock/src/rDock_2013.1_src/data/scripts/dock_solv.prm

>  <Rbt.Receptor>
prm/pocket_docking_7.prm

>  <SCORE>
-5.39126

>  <SCORE.INTER>
2.67712

>  <SCORE.INTER.CONST>
1

>  <SCORE.INTER.POLAR>
0

>  <SCORE.INTER.ROT>
13

>  <SCORE.INTER.SOLV>
15.8493

>  <SCORE.INTER.VDW>
-15.765

>  <SCORE.INTER.norm>
0.0546351

>  <SCORE.INTRA>
-8.06838

>  <SCORE.INTRA.DIHEDRAL>
-23.7994

>  <SCORE.INTRA.DIHEDRAL.0>
34.5115

>  <SCORE.INTRA.POLAR>
0

>  <SCORE.INTRA.POLAR.0>
0

>  <SCORE.INTRA.REPUL>
0

>  <SCORE.INTRA.REPUL.0>
0

>  <SCORE.INTRA.SOLV>
2.65375

>  <SCORE.INTRA.SOLV.lig_0>
-122.812

>  <SCORE.INTRA.VDW>
2.50446

>  <SCORE.INTRA.VDW.0>
-7.46208

>  <SCORE.INTRA.norm>
-0.164661

>  <SCORE.RESTR>
0

>  <SCORE.RESTR.CAVITY>
0

>  <SCORE.RESTR.norm>
0

>  <SCORE.SYSTEM>
0

>  <SCORE.SYSTEM.CONST>
0

>  <SCORE.SYSTEM.DIHEDRAL>
0

>  <SCORE.SYSTEM.SOLV>
0

>  <SCORE.SYSTEM.norm>
0

>  <SCORE.heavy>
49

>  <SCORE.norm>
-0.110026

>  <RMSD>
10.456

$$$$
ligand
 OpenBabel11021811513D
libRbt.so/2013.1/901 2013/11/27
 49 52  0  0  0  0  0  0  0  0999 V2000
   26.0272   14.6334    7.6897 C   0  0  2  0  0  0  0  0  0  0  0  0
   26.4784   14.9309    8.9781 O   0  0  0  0  0  0  0  0  0  0  0  0
   26.9459   15.3447    6.6280 C   0  0  2  0  0  0  0  0  0  0  0  0
   28.3788   14.8694    6.8106 N   0  0  0  0  0  0  0  0  0  0  0  0
   28.0548   10.7754   14.2526 O   0  0  0  0  0  0  0  0  0  0  0  0
   26.8392   16.8813    6.7665 C   0  0  2  0  0  0  0  0  0  0  0  0
   26.0187    8.2987   15.4456 N   0  0  0  0  0  0  0  0  0  0  0  0
   25.3806   17.3351    6.5981 C   0  0  2  0  0  0  0  0  0  0  0  0
   24.4218   16.6361    7.6524 C   0  0  2  0  0  0  0  0  0  0  0  0
   24.6008   15.1230    7.5153 O   0  0  0  0  0  0  0  0  0  0  0  0
   22.9389   17.0577    7.4402 C   0  0  0  0  0  0  0  0  0  0  0  0
   22.0396   16.4813    8.3745 N   0  0  0  0  0  0  0  0  0  0  0  0
   26.7004   12.9091   12.8077 C   0  0  2  0  0  0  0  0  0  0  0  0
   26.3346   12.5005   14.1956 N   0  0  0  0  0  0  0  0  0  0  0  0
   26.5621   14.5067   12.7368 C   0  0  0  0  0  0  0  0  0  0  0  0
   26.9556   15.0285   11.3046 C   0  0  2  0  0  0  0  0  0  0  0  0
   26.8134   16.4896   11.2209 N   0  0  0  0  0  0  0  0  0  0  0  0
   26.0443   14.3928   10.2358 C   0  0  2  0  0  0  0  0  0  0  0  0
   26.1539   12.8152   10.2816 C   0  0  2  0  0  0  0  0  0  0  0  0
   25.2575   12.3071    9.2243 O   0  0  0  0  0  0  0  0  0  0  0  0
   25.6834   12.3020   11.7364 C   0  0  1  0  0  0  0  0  0  0  0  0
   25.7794   10.9127   11.7539 O   0  0  0  0  0  0  0  0  0  0  0  0
   25.1706   11.0935    8.7973 C   0  0  1  0  0  0  0  0  0  0  0  0
   23.7364   10.6052    8.4376 C   0  0  2  0  0  0  0  0  0  0  0  0
   23.1801   10.0221    9.5736 O   0  0  0  0  0  0  0  0  0  0  0  0
   24.0956    9.5948    7.4286 C   0  0  1  0  0  0  0  0  0  0  0  0
   25.2778   10.1552    6.5790 C   0  0  2  0  0  0  0  0  0  0  0  0
   25.9815   10.7973    7.6139 O   0  0  0  0  0  0  0  0  0  0  0  0
   24.9464   10.9736    5.3303 C   0  0  0  0  0  0  0  0  0  0  0  0
   26.1820   11.2498    4.6982 O   0  0  0  0  0  0  0  0  0  0  0  0
   24.4346    7.1655    7.5113 C   0  0  2  0  0  0  0  0  0  0  0  0
   24.4616    8.3531    8.1839 O   0  0  0  0  0  0  0  0  0  0  0  0
   24.8141    6.0104    8.3905 C   0  0  1  0  0  0  0  0  0  0  0  0
   25.9037    7.0336    3.1868 N   0  0  0  0  0  0  0  0  0  0  0  0
   26.6964   12.2452   17.1021 O   0  0  0  0  0  0  0  0  0  0  0  0
   24.8116    4.6819    7.5390 C   0  0  2  0  0  0  0  0  0  0  0  0
   25.7580    4.7332    6.2898 C   0  0  1  0  0  0  0  0  0  0  0  0
   25.3675    5.8452    5.4552 C   0  0  1  0  0  0  0  0  0  0  0  0
   25.3615    7.1363    6.2514 O   0  0  0  0  0  0  0  0  0  0  0  0
   26.3313    5.9624    4.1942 C   0  0  0  0  0  0  0  0  0  0  0  0
   26.1138    6.1995    8.9017 N   0  0  0  0  0  0  0  0  0  0  0  0
   27.4822   17.3739    5.9601 O   0  0  0  0  0  0  0  0  0  0  0  0
   25.3600   10.6451   16.1999 C   0  0  0  0  0  0  0  0  0  0  0  0
   26.8322    4.9032    6.6569 O   0  0  0  0  0  0  0  0  0  0  0  0
   23.7458    4.5142    7.1401 O   0  0  0  0  0  0  0  0  0  0  0  0
   27.1241   11.3800   14.8039 C   0  0  0  0  0  0  0  0  0  0  0  0
   25.3626    9.2689   16.2462 C   0  0  0  0  0  0  0  0  0  0  0  0
   26.6203   11.0642   16.3066 C   0  0  1  0  0  0  0  0  0  0  0  0
   24.9239   17.0108    5.3083 F   0  0  0  0  0  0  0  0  0  0  0  0
  1  2  1  1  0  0  0
  1 10  1  0  0  0  0
  1  3  1  0  0  0  0
  3  4  1  1  0  0  0
  3  6  1  0  0  0  0
  5 46  2  0  0  0  0
  6 42  1  6  0  0  0
  6  8  1  0  0  0  0
  7 47  1  0  0  0  0
  8  9  1  0  0  0  0
  8 49  1  6  0  0  0
  9 10  1  0  0  0  0
  9 11  1  6  0  0  0
 11 12  1  0  0  0  0
 13 14  1  1  0  0  0
 13 15  1  0  0  0  0
 13 21  1  0  0  0  0
 14 46  1  0  0  0  0
 15 16  1  0  0  0  0
 16 17  1  1  0  0  0
 16 18  1  0  0  0  0
 18  2  1  6  0  0  0
 18 19  1  0  0  0  0
 19 20  1  6  0  0  0
 19 21  1  0  0  0  0
 21 22  1  6  0  0  0
 23 20  1  6  0  0  0
 23 24  1  0  0  0  0
 23 28  1  0  0  0  0
 24 25  1  1  0  0  0
 24 26  1  0  0  0  0
 26 27  1  0  0  0  0
 26 32  1  1  0  0  0
 27 28  1  0  0  0  0
 27 29  1  6  0  0  0
 29 30  1  0  0  0  0
 31 32  1  1  0  0  0
 31 33  1  0  0  0  0
 31 39  1  0  0  0  0
 33 36  1  0  0  0  0
 33 41  1  6  0  0  0
 34 40  1  0  0  0  0
 35 48  1  0  0  0  0
 36 37  1  0  0  0  0
 36 45  1  6  0  0  0
 37 38  1  0  0  0  0
 37 44  1  1  0  0  0
 38 39  1  0  0  0  0
 38 40  1  6  0  0  0
 43 47  1  0  0  0  0
 46 48  1  0  0  0  0
 48 43  1  6  0  0  0
M  END
>  <CHROM.1>
-172.52762085,176.65130656,-178.82442510,-142.29188869,170.27512622,142.59220668
160.16774724,-175.00019643,-179.65432575,174.40016885,-57.30919769,-141.83658808
122.76821358,25.63852580,11.41185413,9.13736944,0.85480988,-1.46852120,-0.36280142

>  <Name>
ligand

>  <RI>
0

>  <Rbt.Current_Directory>
/home/itssahil/PROJECTS/Mol_Feturizer/New_Systems/rnas/4PDQ

>  <Rbt.Executable>
rbdock ($Id: //depot/dev/client3/rdock/2013.1/src/exe/rbdock.cxx#4 $)

>  <Rbt.Library>
libRbt.so (2013.1, Build901 2013/11/27)

>  <Rbt.Parameter_File>
/export/apps/rDock/src/rDock_2013.1_src/data/scripts/dock_solv.prm

>  <Rbt.Receptor>
prm/pocket_docking_8.prm

>  <SCORE>
-15.3424

>  <SCORE.INTER>
-3.82542

>  <SCORE.INTER.CONST>
1

>  <SCORE.INTER.POLAR>
0

>  <SCORE.INTER.ROT>
13

>  <SCORE.INTER.SOLV>
17.3365

>  <SCORE.INTER.VDW>
-20.5958

>  <SCORE.INTER.norm>
-0.0780698

>  <SCORE.INTRA>
-11.517

>  <SCORE.INTRA.DIHEDRAL>
-21.4339

>  <SCORE.INTRA.DIHEDRAL.0>
34.5115

>  <SCORE.INTRA.POLAR>
0

>  <SCORE.INTRA.POLAR.0>
0

>  <SCORE.INTRA.REPUL>
0

>  <SCORE.INTRA.REPUL.0>
0

>  <SCORE.INTRA.SOLV>
-3.49789

>  <SCORE.INTRA.SOLV.lig_0>
-122.812

>  <SCORE.INTRA.VDW>
0.948911

>  <SCORE.INTRA.VDW.0>
-7.46208

>  <SCORE.INTRA.norm>
-0.235041

>  <SCORE.RESTR>
0

>  <SCORE.RESTR.CAVITY>
0

>  <SCORE.RESTR.norm>
0

>  <SCORE.SYSTEM>
0

>  <SCORE.SYSTEM.CONST>
0

>  <SCORE.SYSTEM.DIHEDRAL>
0

>  <SCORE.SYSTEM.SOLV>
0

>  <SCORE.SYSTEM.norm>
0

>  <SCORE.heavy>
49

>  <SCORE.norm>
-0.31311

>  <RMSD>
10.463

$$$$
ligand
 OpenBabel11021811513D
libRbt.so/2013.1/901 2013/11/27
 49 52  0  0  0  0  0  0  0  0999 V2000
   29.9205    8.5536    2.0470 C   0  0  2  0  0  0  0  0  0  0  0  0
   29.3071    8.4209    3.2952 O   0  0  0  0  0  0  0  0  0  0  0  0
   30.5253    7.1700    1.6030 C   0  0  2  0  0  0  0  0  0  0  0  0
   29.4115    6.1367    1.5389 N   0  0  0  0  0  0  0  0  0  0  0  0
   24.5349    9.0717    7.9059 O   0  0  0  0  0  0  0  0  0  0  0  0
   31.6445    6.7338    2.5771 C   0  0  2  0  0  0  0  0  0  0  0  0
   24.6615   14.1123   10.6819 N   0  0  0  0  0  0  0  0  0  0  0  0
   32.7476    7.8018    2.6399 C   0  0  2  0  0  0  0  0  0  0  0  0
   32.1743    9.2141    3.0832 C   0  0  2  0  0  0  0  0  0  0  0  0
   31.0379    9.5783    2.1260 O   0  0  0  0  0  0  0  0  0  0  0  0
   33.2862   10.3028    3.0907 C   0  0  0  0  0  0  0  0  0  0  0  0
   33.7814   10.6255    1.8005 N   0  0  0  0  0  0  0  0  0  0  0  0
   25.9790   10.0254    5.5650 C   0  0  2  0  0  0  0  0  0  0  0  0
   25.2141   10.9253    6.4774 N   0  0  0  0  0  0  0  0  0  0  0  0
   27.3770    9.7048    6.2855 C   0  0  0  0  0  0  0  0  0  0  0  0
   28.2425    8.7352    5.3971 C   0  0  2  0  0  0  0  0  0  0  0  0
   29.5350    8.4499    6.0374 N   0  0  0  0  0  0  0  0  0  0  0  0
   28.5161    9.3737    4.0207 C   0  0  2  0  0  0  0  0  0  0  0  0
   27.1560    9.7067    3.2843 C   0  0  2  0  0  0  0  0  0  0  0  0
   27.5240   10.3019    1.9844 O   0  0  0  0  0  0  0  0  0  0  0  0
   26.3185   10.7513    4.1836 C   0  0  1  0  0  0  0  0  0  0  0  0
   25.1304   11.0375    3.5157 O   0  0  0  0  0  0  0  0  0  0  0  0
   26.7216   10.7683    1.0892 C   0  0  1  0  0  0  0  0  0  0  0  0
   27.2425   10.7165   -0.3773 C   0  0  2  0  0  0  0  0  0  0  0  0
   27.9005   11.9145   -0.6455 O   0  0  0  0  0  0  0  0  0  0  0  0
   25.9444   10.6431   -1.0684 C   0  0  1  0  0  0  0  0  0  0  0  0
   25.0022    9.7195   -0.2360 C   0  0  2  0  0  0  0  0  0  0  0  0
   25.4049   10.1278    1.0483 O   0  0  0  0  0  0  0  0  0  0  0  0
   25.0067    8.2205   -0.5394 C   0  0  0  0  0  0  0  0  0  0  0  0
   24.5938    8.0876   -1.8864 O   0  0  0  0  0  0  0  0  0  0  0  0
   25.8698   12.8116   -2.2153 C   0  0  2  0  0  0  0  0  0  0  0  0
   25.4372   12.0499   -1.1683 O   0  0  0  0  0  0  0  0  0  0  0  0
   24.9660   13.9809   -2.4737 C   0  0  1  0  0  0  0  0  0  0  0  0
   27.1437   12.5937   -7.2811 N   0  0  0  0  0  0  0  0  0  0  0  0
   22.7783   10.7433    9.3635 O   0  0  0  0  0  0  0  0  0  0  0  0
   25.4953   14.7851   -3.7239 C   0  0  2  0  0  0  0  0  0  0  0  0
   25.6253   13.9159   -5.0225 C   0  0  1  0  0  0  0  0  0  0  0  0
   26.5063   12.8040   -4.7522 C   0  0  1  0  0  0  0  0  0  0  0  0
   26.0190   12.0137   -3.5526 O   0  0  0  0  0  0  0  0  0  0  0  0
   26.6331   11.8679   -6.0331 C   0  0  0  0  0  0  0  0  0  0  0  0
   23.6631   13.5290   -2.7645 N   0  0  0  0  0  0  0  0  0  0  0  0
   32.0944    5.7489    2.2111 O   0  0  0  0  0  0  0  0  0  0  0  0
   24.6803   11.9823    9.2779 C   0  0  0  0  0  0  0  0  0  0  0  0
   24.5858   13.5097   -5.2911 O   0  0  0  0  0  0  0  0  0  0  0  0
   26.5498   15.1742   -3.4792 O   0  0  0  0  0  0  0  0  0  0  0  0
   24.5188   10.2819    7.6399 C   0  0  0  0  0  0  0  0  0  0  0  0
   24.1149   13.0975    9.8546 C   0  0  0  0  0  0  0  0  0  0  0  0
   23.7487   11.3832    8.5374 C   0  0  1  0  0  0  0  0  0  0  0  0
   33.3444    7.9489    1.3752 F   0  0  0  0  0  0  0  0  0  0  0  0
  1  2  1  1  0  0  0
  1 10  1  0  0  0  0
  1  3  1  0  0  0  0
  3  4  1  1  0  0  0
  3  6  1  0  0  0  0
  5 46  2  0  0  0  0
  6 42  1  6  0  0  0
  6  8  1  0  0  0  0
  7 47  1  0  0  0  0
  8  9  1  0  0  0  0
  8 49  1  6  0  0  0
  9 10  1  0  0  0  0
  9 11  1  6  0  0  0
 11 12  1  0  0  0  0
 13 14  1  1  0  0  0
 13 15  1  0  0  0  0
 13 21  1  0  0  0  0
 14 46  1  0  0  0  0
 15 16  1  0  0  0  0
 16 17  1  1  0  0  0
 16 18  1  0  0  0  0
 18  2  1  6  0  0  0
 18 19  1  0  0  0  0
 19 20  1  6  0  0  0
 19 21  1  0  0  0  0
 21 22  1  6  0  0  0
 23 20  1  1  0  0  0
 23 24  1  0  0  0  0
 23 28  1  0  0  0  0
 24 25  1  6  0  0  0
 24 26  1  0  0  0  0
 26 27  1  0  0  0  0
 26 32  1  1  0  0  0
 27 28  1  0  0  0  0
 27 29  1  1  0  0  0
 29 30  1  0  0  0  0
 31 32  1  1  0  0  0
 31 33  1  0  0  0  0
 31 39  1  0  0  0  0
 33 36  1  0  0  0  0
 33 41  1  6  0  0  0
 34 40  1  0  0  0  0
 35 48  1  0  0  0  0
 36 37  1  0  0  0  0
 36 45  1  1  0  0  0
 37 38  1  0  0  0  0
 37 44  1  1  0  0  0
 38 39  1  0  0  0  0
 38 40  1  6  0  0  0
 43 47  1  0  0  0  0
 46 48  1  0  0  0  0
 48 43  1  1  0  0  0
M  END
>  <CHROM.1>
-173.04846787,-173.75704650,67.52901407,-79.03219276,-176.99381250,-152.49877580
84.61640363,-61.12944075,160.28718121,57.86917095,-177.11806623,-72.39308464
-18.85156449,27.27654801,10.53848983,1.74586592,-1.52847511,0.53630901,-1.39012287

>  <Name>
ligand

>  <RI>
0

>  <Rbt.Current_Directory>
/home/itssahil/PROJECTS/Mol_Feturizer/New_Systems/rnas/4PDQ

>  <Rbt.Executable>
rbdock ($Id: //depot/dev/client3/rdock/2013.1/src/exe/rbdock.cxx#4 $)

>  <Rbt.Library>
libRbt.so (2013.1, Build901 2013/11/27)

>  <Rbt.Parameter_File>
/export/apps/rDock/src/rDock_2013.1_src/data/scripts/dock_solv.prm

>  <Rbt.Receptor>
prm/pocket_docking_5.prm

>  <SCORE>
-11.7357

>  <SCORE.INTER>
-1.90424

>  <SCORE.INTER.CONST>
1

>  <SCORE.INTER.POLAR>
0

>  <SCORE.INTER.ROT>
13

>  <SCORE.INTER.SOLV>
16.6462

>  <SCORE.INTER.VDW>
-19.0849

>  <SCORE.INTER.norm>
-0.038862

>  <SCORE.INTRA>
-10.0908

>  <SCORE.INTRA.DIHEDRAL>
-24.2824

>  <SCORE.INTRA.DIHEDRAL.0>
34.5115

>  <SCORE.INTRA.POLAR>
0

>  <SCORE.INTRA.POLAR.0>
0

>  <SCORE.INTRA.REPUL>
0

>  <SCORE.INTRA.REPUL.0>
0

>  <SCORE.INTRA.SOLV>
-2.89783

>  <SCORE.INTRA.SOLV.lig_0>
-122.812

>  <SCORE.INTRA.VDW>
3.49929

>  <SCORE.INTRA.VDW.0>
-7.46208

>  <SCORE.INTRA.norm>
-0.205936

>  <SCORE.RESTR>
0.259391

>  <SCORE.RESTR.CAVITY>
0.259391

>  <SCORE.RESTR.norm>
0.0052937

>  <SCORE.SYSTEM>
0

>  <SCORE.SYSTEM.CONST>
0

>  <SCORE.SYSTEM.DIHEDRAL>
0

>  <SCORE.SYSTEM.SOLV>
0

>  <SCORE.SYSTEM.norm>
0

>  <SCORE.heavy>
49

>  <SCORE.norm>
-0.239504

>  <RMSD>
10.464

$$$$
ligand
 OpenBabel11021811513D
libRbt.so/2013.1/901 2013/11/27
 49 52  0  0  0  0  0  0  0  0999 V2000
   25.0402   13.9785    9.0236 C   0  0  2  0  0  0  0  0  0  0  0  0
   24.7322   12.7749    9.6628 O   0  0  0  0  0  0  0  0  0  0  0  0
   24.2905   14.0527    7.6417 C   0  0  2  0  0  0  0  0  0  0  0  0
   22.7925   13.9479    7.8810 N   0  0  0  0  0  0  0  0  0  0  0  0
   28.2364    8.2497    9.9989 O   0  0  0  0  0  0  0  0  0  0  0  0
   24.7906   12.9350    6.6969 C   0  0  2  0  0  0  0  0  0  0  0  0
   29.5519    5.0173    8.9299 N   0  0  0  0  0  0  0  0  0  0  0  0
   26.3085   13.0498    6.4863 C   0  0  2  0  0  0  0  0  0  0  0  0
   27.0997   12.9808    7.8607 C   0  0  2  0  0  0  0  0  0  0  0  0
   26.5359   14.0665    8.7792 O   0  0  0  0  0  0  0  0  0  0  0  0
   28.6312   13.1534    7.6450 C   0  0  0  0  0  0  0  0  0  0  0  0
   29.3711   13.2652    8.8508 N   0  0  0  0  0  0  0  0  0  0  0  0
   26.2090    9.3044   11.8022 C   0  0  2  0  0  0  0  0  0  0  0  0
   26.9872    8.0623   12.0827 N   0  0  0  0  0  0  0  0  0  0  0  0
   25.5974    9.1518   10.3260 C   0  0  0  0  0  0  0  0  0  0  0  0
   24.7355   10.4161    9.9559 C   0  0  2  0  0  0  0  0  0  0  0  0
   24.1860   10.2973    8.5972 N   0  0  0  0  0  0  0  0  0  0  0  0
   25.6022   11.6897   10.0165 C   0  0  2  0  0  0  0  0  0  0  0  0
   26.2248   11.8678   11.4600 C   0  0  2  0  0  0  0  0  0  0  0  0
   27.0236   13.1085   11.4159 O   0  0  0  0  0  0  0  0  0  0  0  0
   27.1546   10.5913   11.7878 C   0  0  1  0  0  0  0  0  0  0  0  0
   27.6988   10.7706   13.0572 O   0  0  0  0  0  0  0  0  0  0  0  0
   26.5813   14.3122   11.2803 C   0  0  1  0  0  0  0  0  0  0  0  0
   25.7099   14.8477   12.4543 C   0  0  2  0  0  0  0  0  0  0  0  0
   24.3779   14.5518   12.1748 O   0  0  0  0  0  0  0  0  0  0  0  0
   25.9915   16.2845   12.2985 C   0  0  1  0  0  0  0  0  0  0  0  0
   27.4975   16.4469   11.9253 C   0  0  2  0  0  0  0  0  0  0  0  0
   27.6158   15.3296   11.0792 O   0  0  0  0  0  0  0  0  0  0  0  0
   28.5123   16.5896   13.0605 C   0  0  0  0  0  0  0  0  0  0  0  0
   28.1376   15.6475   14.0477 O   0  0  0  0  0  0  0  0  0  0  0  0
   25.4114   17.9349   10.5772 C   0  0  2  0  0  0  0  0  0  0  0  0
   25.0711   16.7830   11.2259 O   0  0  0  0  0  0  0  0  0  0  0  0
   24.3966   19.0203   10.7849 C   0  0  1  0  0  0  0  0  0  0  0  0
   24.9381   18.0998    6.0441 N   0  0  0  0  0  0  0  0  0  0  0  0
   28.7995    6.2127   12.9278 O   0  0  0  0  0  0  0  0  0  0  0  0
   24.8256   20.3009    9.9687 C   0  0  2  0  0  0  0  0  0  0  0  0
   25.0146   20.0356    8.4349 C   0  0  1  0  0  0  0  0  0  0  0  0
   26.0014   18.9958    8.2604 C   0  0  1  0  0  0  0  0  0  0  0  0
   25.6120   17.7520    9.0366 O   0  0  0  0  0  0  0  0  0  0  0  0
   26.1939   18.6621    6.7162 C   0  0  0  0  0  0  0  0  0  0  0  0
   23.1375   18.6012   10.3104 N   0  0  0  0  0  0  0  0  0  0  0  0
   24.2620   13.0351    5.6884 O   0  0  0  0  0  0  0  0  0  0  0  0
   28.0693    5.2806   10.9893 C   0  0  0  0  0  0  0  0  0  0  0  0
   24.0137   19.6741    8.0047 O   0  0  0  0  0  0  0  0  0  0  0  0
   25.8427   20.6576   10.3707 O   0  0  0  0  0  0  0  0  0  0  0  0
   27.9947    7.6451   11.0533 C   0  0  0  0  0  0  0  0  0  0  0  0
   28.3409    5.2202    9.6407 C   0  0  0  0  0  0  0  0  0  0  0  0
   28.7611    6.2960   11.5047 C   0  0  1  0  0  0  0  0  0  0  0  0
   26.6148   14.2737    5.8655 F   0  0  0  0  0  0  0  0  0  0  0  0
  1  2  1  6  0  0  0
  1 10  1  0  0  0  0
  1  3  1  0  0  0  0
  3  4  1  1  0  0  0
  3  6  1  0  0  0  0
  5 46  2  0  0  0  0
  6 42  1  6  0  0  0
  6  8  1  0  0  0  0
  7 47  1  0  0  0  0
  8  9  1  0  0  0  0
  8 49  1  1  0  0  0
  9 10  1  0  0  0  0
  9 11  1  6  0  0  0
 11 12  1  0  0  0  0
 13 14  1  6  0  0  0
 13 15  1  0  0  0  0
 13 21  1  0  0  0  0
 14 46  1  0  0  0  0
 15 16  1  0  0  0  0
 16 17  1  6  0  0  0
 16 18  1  0  0  0  0
 18  2  1  1  0  0  0
 18 19  1  0  0  0  0
 19 20  1  6  0  0  0
 19 21  1  0  0  0  0
 21 22  1  1  0  0  0
 23 20  1  1  0  0  0
 23 24  1  0  0  0  0
 23 28  1  0  0  0  0
 24 25  1  6  0  0  0
 24 26  1  0  0  0  0
 26 27  1  0  0  0  0
 26 32  1  6  0  0  0
 27 28  1  0  0  0  0
 27 29  1  1  0  0  0
 29 30  1  0  0  0  0
 31 32  1  6  0  0  0
 31 33  1  0  0  0  0
 31 39  1  0  0  0  0
 33 36  1  0  0  0  0
 33 41  1  6  0  0  0
 34 40  1  0  0  0  0
 35 48  1  0  0  0  0
 36 37  1  0  0  0  0
 36 45  1  1  0  0  0
 37 38  1  0  0  0  0
 37 44  1  1  0  0  0
 38 39  1  0  0  0  0
 38 40  1  6  0  0  0
 43 47  1  0  0  0  0
 46 48  1  0  0  0  0
 48 43  1  6  0  0  0
M  END
>  <CHROM.1>
116.68104691,-149.73590019,172.64837289,51.20280443,67.38955098,65.59265977
-158.55538214,42.45109479,-117.72393496,-63.32768145,60.77746469,-165.23319074
150.82054464,26.26508242,13.52207201,9.90171148,2.28975261,-1.21970683,0.55162480

>  <Name>
ligand

>  <RI>
0

>  <Rbt.Current_Directory>
/home/itssahil/PROJECTS/Mol_Feturizer/New_Systems/rnas/4PDQ

>  <Rbt.Executable>
rbdock ($Id: //depot/dev/client3/rdock/2013.1/src/exe/rbdock.cxx#4 $)

>  <Rbt.Library>
libRbt.so (2013.1, Build901 2013/11/27)

>  <Rbt.Parameter_File>
/export/apps/rDock/src/rDock_2013.1_src/data/scripts/dock_solv.prm

>  <Rbt.Receptor>
prm/blind_docking_100.prm

>  <SCORE>
11.5667

>  <SCORE.INTER>
4.9702

>  <SCORE.INTER.CONST>
1

>  <SCORE.INTER.POLAR>
0

>  <SCORE.INTER.ROT>
13

>  <SCORE.INTER.SOLV>
30.7823

>  <SCORE.INTER.VDW>
-19.214

>  <SCORE.INTER.norm>
0.101433

>  <SCORE.INTRA>
3.27632

>  <SCORE.INTRA.DIHEDRAL>
-10.2913

>  <SCORE.INTRA.DIHEDRAL.0>
34.5115

>  <SCORE.INTRA.POLAR>
0

>  <SCORE.INTRA.POLAR.0>
0

>  <SCORE.INTRA.REPUL>
0.121406

>  <SCORE.INTRA.REPUL.0>
0

>  <SCORE.INTRA.SOLV>
5.08377

>  <SCORE.INTRA.SOLV.lig_0>
-122.812

>  <SCORE.INTRA.VDW>
5.27307

>  <SCORE.INTRA.VDW.0>
-7.46208

>  <SCORE.INTRA.norm>
0.0668637

>  <SCORE.RESTR>
3.32013

>  <SCORE.RESTR.CAVITY>
3.32013

>  <SCORE.RESTR.norm>
0.0677577

>  <SCORE.SYSTEM>
0

>  <SCORE.SYSTEM.CONST>
0

>  <SCORE.SYSTEM.DIHEDRAL>
0

>  <SCORE.SYSTEM.SOLV>
0

>  <SCORE.SYSTEM.norm>
0

>  <SCORE.heavy>
49

>  <SCORE.norm>
0.236054

>  <RMSD>
10.467

$$$$
ligand
 OpenBabel11021811513D
libRbt.so/2013.1/901 2013/11/27
 49 52  0  0  0  0  0  0  0  0999 V2000
   27.6582   15.2792    7.4242 C   0  0  2  0  0  0  0  0  0  0  0  0
   26.6227   15.4064    8.3535 O   0  0  0  0  0  0  0  0  0  0  0  0
   27.3839   16.2190    6.1918 C   0  0  2  0  0  0  0  0  0  0  0  0
   27.2791   17.6570    6.6751 N   0  0  0  0  0  0  0  0  0  0  0  0
   28.5576   10.1191   11.9411 O   0  0  0  0  0  0  0  0  0  0  0  0
   26.0992   15.7770    5.4527 C   0  0  2  0  0  0  0  0  0  0  0  0
   27.1008    5.8826   12.2869 N   0  0  0  0  0  0  0  0  0  0  0  0
   26.2210   14.3161    4.9920 C   0  0  2  0  0  0  0  0  0  0  0  0
   26.5003   13.3367    6.2095 C   0  0  2  0  0  0  0  0  0  0  0  0
   27.7453   13.8430    6.9402 O   0  0  0  0  0  0  0  0  0  0  0  0
   26.6776   11.8673    5.7289 C   0  0  0  0  0  0  0  0  0  0  0  0
   27.6928   11.7025    4.7510 N   0  0  0  0  0  0  0  0  0  0  0  0
   26.4968   11.7904   10.7434 C   0  0  2  0  0  0  0  0  0  0  0  0
   26.2477   10.8947   11.9107 N   0  0  0  0  0  0  0  0  0  0  0  0
   27.1968   13.1184   11.3116 C   0  0  0  0  0  0  0  0  0  0  0  0
   27.5192   14.1146   10.1361 C   0  0  2  0  0  0  0  0  0  0  0  0
   28.1428   15.3445   10.6464 N   0  0  0  0  0  0  0  0  0  0  0  0
   26.2244   14.5018    9.3941 C   0  0  2  0  0  0  0  0  0  0  0  0
   25.5059   13.2127    8.8240 C   0  0  2  0  0  0  0  0  0  0  0  0
   24.2919   13.6877    8.1312 O   0  0  0  0  0  0  0  0  0  0  0  0
   25.1282   12.2397   10.0537 C   0  0  1  0  0  0  0  0  0  0  0  0
   24.4907   11.1164    9.5327 O   0  0  0  0  0  0  0  0  0  0  0  0
   23.3850   14.4728    8.6045 C   0  0  1  0  0  0  0  0  0  0  0  0
   21.9288   14.1822    8.1360 C   0  0  2  0  0  0  0  0  0  0  0  0
   21.6842   14.9354    6.9902 O   0  0  0  0  0  0  0  0  0  0  0  0
   21.2114   14.7206    9.3036 C   0  0  1  0  0  0  0  0  0  0  0  0
   22.0167   14.3433   10.5853 C   0  0  2  0  0  0  0  0  0  0  0  0
   23.3123   14.5191   10.0667 O   0  0  0  0  0  0  0  0  0  0  0  0
   21.7004   13.0143   11.2727 C   0  0  0  0  0  0  0  0  0  0  0  0
   22.1041   11.9978   10.3747 O   0  0  0  0  0  0  0  0  0  0  0  0
   22.2181   16.9581    9.3618 C   0  0  2  0  0  0  0  0  0  0  0  0
   21.1136   16.2016    9.0951 O   0  0  0  0  0  0  0  0  0  0  0  0
   21.9686   17.9551   10.4549 C   0  0  1  0  0  0  0  0  0  0  0  0
   24.3603   18.3983    5.7639 N   0  0  0  0  0  0  0  0  0  0  0  0
   26.1607    9.9420   14.5623 O   0  0  0  0  0  0  0  0  0  0  0  0
   23.2659   18.8263   10.6746 C   0  0  2  0  0  0  0  0  0  0  0  0
   23.7539   19.5660    9.3810 C   0  0  1  0  0  0  0  0  0  0  0  0
   23.9964   18.5864    8.3480 C   0  0  1  0  0  0  0  0  0  0  0  0
   22.7627   17.7343    8.1175 O   0  0  0  0  0  0  0  0  0  0  0  0
   24.4527   19.2980    6.9996 C   0  0  0  0  0  0  0  0  0  0  0  0
   20.9180   18.8203   10.0886 N   0  0  0  0  0  0  0  0  0  0  0  0
   25.9445   16.4478    4.5404 O   0  0  0  0  0  0  0  0  0  0  0  0
   26.3259    8.1390   13.1906 C   0  0  0  0  0  0  0  0  0  0  0  0
   22.9200   20.2741    9.0333 O   0  0  0  0  0  0  0  0  0  0  0  0
   24.1185   18.1242   10.9960 O   0  0  0  0  0  0  0  0  0  0  0  0
   27.4114   10.0922   12.4115 C   0  0  0  0  0  0  0  0  0  0  0  0
   27.2396    7.1456   12.9182 C   0  0  0  0  0  0  0  0  0  0  0  0
   26.9882    9.1860   13.6808 C   0  0  1  0  0  0  0  0  0  0  0  0
   27.2805   14.1894    4.0761 F   0  0  0  0  0  0  0  0  0  0  0  0
  1  2  1  1  0  0  0
  1 10  1  0  0  0  0
  1  3  1  0  0  0  0
  3  4  1  1  0  0  0
  3  6  1  0  0  0  0
  5 46  2  0  0  0  0
  6 42  1  6  0  0  0
  6  8  1  0  0  0  0
  7 47  1  0  0  0  0
  8  9  1  0  0  0  0
  8 49  1  6  0  0  0
  9 10  1  0  0  0  0
  9 11  1  6  0  0  0
 11 12  1  0  0  0  0
 13 14  1  1  0  0  0
 13 15  1  0  0  0  0
 13 21  1  0  0  0  0
 14 46  1  0  0  0  0
 15 16  1  0  0  0  0
 16 17  1  1  0  0  0
 16 18  1  0  0  0  0
 18  2  1  6  0  0  0
 18 19  1  0  0  0  0
 19 20  1  1  0  0  0
 19 21  1  0  0  0  0
 21 22  1  6  0  0  0
 23 20  1  1  0  0  0
 23 24  1  0  0  0  0
 23 28  1  0  0  0  0
 24 25  1  6  0  0  0
 24 26  1  0  0  0  0
 26 27  1  0  0  0  0
 26 32  1  6  0  0  0
 27 28  1  0  0  0  0
 27 29  1  6  0  0  0
 29 30  1  0  0  0  0
 31 32  1  6  0  0  0
 31 33  1  0  0  0  0
 31 39  1  0  0  0  0
 33 36  1  0  0  0  0
 33 41  1  6  0  0  0
 34 40  1  0  0  0  0
 35 48  1  0  0  0  0
 36 37  1  0  0  0  0
 36 45  1  6  0  0  0
 37 38  1  0  0  0  0
 37 44  1  6  0  0  0
 38 39  1  0  0  0  0
 38 40  1  6  0  0  0
 43 47  1  0  0  0  0
 46 48  1  0  0  0  0
 48 43  1  6  0  0  0
M  END
>  <CHROM.1>
159.20255965,48.13245957,55.77658153,-80.11585697,-51.44320767,-144.96565914
-78.51122273,66.83980346,-118.45266993,-164.10615818,-173.85657156,-151.33197848
136.85833420,25.03927927,14.27933140,9.07937903,-2.00970717,-0.76430283,2.36622308

>  <Name>
ligand

>  <RI>
0

>  <Rbt.Current_Directory>
/home/itssahil/PROJECTS/Mol_Feturizer/New_Systems/rnas/4PDQ

>  <Rbt.Executable>
rbdock ($Id: //depot/dev/client3/rdock/2013.1/src/exe/rbdock.cxx#4 $)

>  <Rbt.Library>
libRbt.so (2013.1, Build901 2013/11/27)

>  <Rbt.Parameter_File>
/export/apps/rDock/src/rDock_2013.1_src/data/scripts/dock_solv.prm

>  <Rbt.Receptor>
prm/blind_docking_60.prm

>  <SCORE>
-0.710612

>  <SCORE.INTER>
-1.76474

>  <SCORE.INTER.CONST>
1

>  <SCORE.INTER.POLAR>
0

>  <SCORE.INTER.ROT>
13

>  <SCORE.INTER.SOLV>
29.3651

>  <SCORE.INTER.VDW>
-23.2315

>  <SCORE.INTER.norm>
-0.0360151

>  <SCORE.INTRA>
-1.55336

>  <SCORE.INTRA.DIHEDRAL>
-13.2449

>  <SCORE.INTRA.DIHEDRAL.0>
34.5115

>  <SCORE.INTRA.POLAR>
0

>  <SCORE.INTRA.POLAR.0>
0

>  <SCORE.INTRA.REPUL>
0

>  <SCORE.INTRA.REPUL.0>
0

>  <SCORE.INTRA.SOLV>
5.3082

>  <SCORE.INTRA.SOLV.lig_0>
-122.812

>  <SCORE.INTRA.VDW>
2.41496

>  <SCORE.INTRA.VDW.0>
-7.46208

>  <SCORE.INTRA.norm>
-0.0317013

>  <SCORE.RESTR>
2.60749

>  <SCORE.RESTR.CAVITY>
2.60749

>  <SCORE.RESTR.norm>
0.0532141

>  <SCORE.SYSTEM>
0

>  <SCORE.SYSTEM.CONST>
0

>  <SCORE.SYSTEM.DIHEDRAL>
0

>  <SCORE.SYSTEM.SOLV>
0

>  <SCORE.SYSTEM.norm>
0

>  <SCORE.heavy>
49

>  <SCORE.norm>
-0.0145023

>  <RMSD>
10.472

$$$$
ligand
 OpenBabel11021811513D
libRbt.so/2013.1/901 2013/11/27
 49 52  0  0  0  0  0  0  0  0999 V2000
   22.6369   17.6142    8.6214 C   0  0  2  0  0  0  0  0  0  0  0  0
   22.7620   16.6404    9.6155 O   0  0  0  0  0  0  0  0  0  0  0  0
   21.3393   17.3429    7.7729 C   0  0  2  0  0  0  0  0  0  0  0  0
   20.1285   17.3658    8.6926 N   0  0  0  0  0  0  0  0  0  0  0  0
   27.1759   19.3913   13.3429 O   0  0  0  0  0  0  0  0  0  0  0  0
   21.4559   15.9932    7.0269 C   0  0  2  0  0  0  0  0  0  0  0  0
   29.6319   20.4769   12.9281 N   0  0  0  0  0  0  0  0  0  0  0  0
   22.6965   15.9869    6.1200 C   0  0  2  0  0  0  0  0  0  0  0  0
   24.0270   16.2595    6.9416 C   0  0  2  0  0  0  0  0  0  0  0  0
   23.8449   17.5739    7.7028 O   0  0  0  0  0  0  0  0  0  0  0  0
   25.2720   16.3069    6.0092 C   0  0  0  0  0  0  0  0  0  0  0  0
   26.5096   16.2736    6.7030 N   0  0  0  0  0  0  0  0  0  0  0  0
   26.6071   17.1706   11.5486 C   0  0  2  0  0  0  0  0  0  0  0  0
   27.6584   17.1191   12.6066 N   0  0  0  0  0  0  0  0  0  0  0  0
   25.2638   17.7035   12.2472 C   0  0  0  0  0  0  0  0  0  0  0  0
   24.1019   17.8125   11.1906 C   0  0  2  0  0  0  0  0  0  0  0  0
   22.8597   18.2807   11.8228 N   0  0  0  0  0  0  0  0  0  0  0  0
   23.8297   16.4357   10.5525 C   0  0  2  0  0  0  0  0  0  0  0  0
   25.1373   15.8789    9.8575 C   0  0  2  0  0  0  0  0  0  0  0  0
   24.7725   14.5721    9.2756 O   0  0  0  0  0  0  0  0  0  0  0  0
   26.2909   15.7149   10.9727 C   0  0  1  0  0  0  0  0  0  0  0  0
   27.4293   15.2171   10.3436 O   0  0  0  0  0  0  0  0  0  0  0  0
   25.3045   13.4280    9.5419 C   0  0  1  0  0  0  0  0  0  0  0  0
   24.8920   12.7915   10.9018 C   0  0  2  0  0  0  0  0  0  0  0  0
   25.8060   13.2047   11.8681 O   0  0  0  0  0  0  0  0  0  0  0  0
   25.0798   11.3750   10.5466 C   0  0  1  0  0  0  0  0  0  0  0  0
   24.5891   11.1726    9.0797 C   0  0  2  0  0  0  0  0  0  0  0  0
   25.0563   12.3858    8.5429 O   0  0  0  0  0  0  0  0  0  0  0  0
   23.1201   10.8133    8.8518 C   0  0  0  0  0  0  0  0  0  0  0  0
   22.3723   11.9627    9.2014 O   0  0  0  0  0  0  0  0  0  0  0  0
   26.9857   10.7482   11.9601 C   0  0  2  0  0  0  0  0  0  0  0  0
   26.5408   11.0860   10.7145 O   0  0  0  0  0  0  0  0  0  0  0  0
   28.4420   10.3871   11.9603 C   0  0  1  0  0  0  0  0  0  0  0  0
   25.8245    7.7570   16.0609 N   0  0  0  0  0  0  0  0  0  0  0  0
   28.8244   16.8720   15.1978 O   0  0  0  0  0  0  0  0  0  0  0  0
   28.8747    9.9596   13.4164 C   0  0  2  0  0  0  0  0  0  0  0  0
   28.0323    8.7731   14.0006 C   0  0  1  0  0  0  0  0  0  0  0  0
   26.6375    9.1475   13.9992 C   0  0  1  0  0  0  0  0  0  0  0  0
   26.1960    9.5638   12.6089 O   0  0  0  0  0  0  0  0  0  0  0  0
   25.7382    7.9531   14.5447 C   0  0  0  0  0  0  0  0  0  0  0  0
   28.6687    9.2951   11.0986 N   0  0  0  0  0  0  0  0  0  0  0  0
   20.5213   15.8387    6.3874 O   0  0  0  0  0  0  0  0  0  0  0  0
   30.1526   18.1734   13.8932 C   0  0  0  0  0  0  0  0  0  0  0  0
   28.1727    7.8602   13.3191 O   0  0  0  0  0  0  0  0  0  0  0  0
   28.7118   10.8575   14.1166 O   0  0  0  0  0  0  0  0  0  0  0  0
   27.8345   18.3470   13.4492 C   0  0  0  0  0  0  0  0  0  0  0  0
   30.4157   19.4870   13.5751 C   0  0  0  0  0  0  0  0  0  0  0  0
   28.9955   18.1321   14.5526 C   0  0  1  0  0  0  0  0  0  0  0  0
   22.5764   16.9853    5.1371 F   0  0  0  0  0  0  0  0  0  0  0  0
  1  2  1  1  0  0  0
  1 10  1  0  0  0  0
  1  3  1  0  0  0  0
  3  4  1  1  0  0  0
  3  6  1  0  0  0  0
  5 46  2  0  0  0  0
  6 42  1  6  0  0  0
  6  8  1  0  0  0  0
  7 47  1  0  0  0  0
  8  9  1  0  0  0  0
  8 49  1  6  0  0  0
  9 10  1  0  0  0  0
  9 11  1  6  0  0  0
 11 12  1  0  0  0  0
 13 14  1  1  0  0  0
 13 15  1  0  0  0  0
 13 21  1  0  0  0  0
 14 46  1  0  0  0  0
 15 16  1  0  0  0  0
 16 17  1  1  0  0  0
 16 18  1  0  0  0  0
 18  2  1  6  0  0  0
 18 19  1  0  0  0  0
 19 20  1  1  0  0  0
 19 21  1  0  0  0  0
 21 22  1  6  0  0  0
 23 20  1  6  0  0  0
 23 24  1  0  0  0  0
 23 28  1  0  0  0  0
 24 25  1  1  0  0  0
 24 26  1  0  0  0  0
 26 27  1  0  0  0  0
 26 32  1  6  0  0  0
 27 28  1  0  0  0  0
 27 29  1  1  0  0  0
 29 30  1  0  0  0  0
 31 32  1  6  0  0  0
 31 33  1  0  0  0  0
 31 39  1  0  0  0  0
 33 36  1  0  0  0  0
 33 41  1  6  0  0  0
 34 40  1  0  0  0  0
 35 48  1  0  0  0  0
 36 37  1  0  0  0  0
 36 45  1  1  0  0  0
 37 38  1  0  0  0  0
 37 44  1  6  0  0  0
 38 39  1  0  0  0  0
 38 40  1  6  0  0  0
 43 47  1  0  0  0  0
 46 48  1  0  0  0  0
 48 43  1  6  0  0  0
M  END
>  <CHROM.1>
175.10624195,49.47340902,-167.81728709,-49.77992202,-120.91422230,75.67976807
85.08072913,68.95344724,175.70146555,74.41081063,-51.82769386,-165.48569488
132.72122940,25.60814958,14.42905710,10.78720089,2.22909475,-0.81199321,-0.10673066

>  <Name>
ligand

>  <RI>
0

>  <Rbt.Current_Directory>
/home/itssahil/PROJECTS/Mol_Feturizer/New_Systems/rnas/4PDQ

>  <Rbt.Executable>
rbdock ($Id: //depot/dev/client3/rdock/2013.1/src/exe/rbdock.cxx#4 $)

>  <Rbt.Library>
libRbt.so (2013.1, Build901 2013/11/27)

>  <Rbt.Parameter_File>
/export/apps/rDock/src/rDock_2013.1_src/data/scripts/dock_solv.prm

>  <Rbt.Receptor>
prm/blind_docking_60.prm

>  <SCORE>
5.25641

>  <SCORE.INTER>
3.63141

>  <SCORE.INTER.CONST>
1

>  <SCORE.INTER.POLAR>
0

>  <SCORE.INTER.ROT>
13

>  <SCORE.INTER.SOLV>
34.2707

>  <SCORE.INTER.VDW>
-21.2693

>  <SCORE.INTER.norm>
0.0741104

>  <SCORE.INTRA>
-3.73324

>  <SCORE.INTRA.DIHEDRAL>
-19.1645

>  <SCORE.INTRA.DIHEDRAL.0>
34.5115

>  <SCORE.INTRA.POLAR>
0

>  <SCORE.INTRA.POLAR.0>
0

>  <SCORE.INTRA.REPUL>
0

>  <SCORE.INTRA.REPUL.0>
0

>  <SCORE.INTRA.SOLV>
2.12434

>  <SCORE.INTRA.SOLV.lig_0>
-122.812

>  <SCORE.INTRA.VDW>
4.78683

>  <SCORE.INTRA.VDW.0>
-7.46208

>  <SCORE.INTRA.norm>
-0.0761885

>  <SCORE.RESTR>
5.35823

>  <SCORE.RESTR.CAVITY>
5.35823

>  <SCORE.RESTR.norm>
0.109352

>  <SCORE.SYSTEM>
0

>  <SCORE.SYSTEM.CONST>
0

>  <SCORE.SYSTEM.DIHEDRAL>
0

>  <SCORE.SYSTEM.SOLV>
0

>  <SCORE.SYSTEM.norm>
0

>  <SCORE.heavy>
49

>  <SCORE.norm>
0.107274

>  <RMSD>
10.484

$$$$
ligand
 OpenBabel11021811513D
libRbt.so/2013.1/901 2013/11/27
 49 52  0  0  0  0  0  0  0  0999 V2000
   30.8030    8.7231    0.7607 C   0  0  2  0  0  0  0  0  0  0  0  0
   29.5265    9.2843    0.6726 O   0  0  0  0  0  0  0  0  0  0  0  0
   31.6958    9.2461   -0.4253 C   0  0  2  0  0  0  0  0  0  0  0  0
   31.7779   10.7629   -0.3561 N   0  0  0  0  0  0  0  0  0  0  0  0
   24.7727    6.7627    4.4722 O   0  0  0  0  0  0  0  0  0  0  0  0
   31.1213    8.7733   -1.7811 C   0  0  2  0  0  0  0  0  0  0  0  0
   25.1419   10.7888    8.0311 N   0  0  0  0  0  0  0  0  0  0  0  0
   31.0295    7.2397   -1.8195 C   0  0  2  0  0  0  0  0  0  0  0  0
   30.1368    6.6742   -0.6350 C   0  0  2  0  0  0  0  0  0  0  0  0
   30.7096    7.2101    0.6784 O   0  0  0  0  0  0  0  0  0  0  0  0
   30.0940    5.1187   -0.6473 C   0  0  0  0  0  0  0  0  0  0  0  0
   31.3506    4.5084   -0.3975 N   0  0  0  0  0  0  0  0  0  0  0  0
   25.9133    9.0367    3.0572 C   0  0  2  0  0  0  0  0  0  0  0  0
   24.9999    9.1766    4.2290 N   0  0  0  0  0  0  0  0  0  0  0  0
   27.2961    8.4367    3.6089 C   0  0  0  0  0  0  0  0  0  0  0  0
   28.3160    8.2326    2.4272 C   0  0  2  0  0  0  0  0  0  0  0  0
   29.5945    7.7020    2.9229 N   0  0  0  0  0  0  0  0  0  0  0  0
   28.5916    9.5755    1.7218 C   0  0  2  0  0  0  0  0  0  0  0  0
   27.2460   10.1972    1.1688 C   0  0  2  0  0  0  0  0  0  0  0  0
   27.6159   11.4657    0.5105 O   0  0  0  0  0  0  0  0  0  0  0  0
   26.2446   10.4570    2.4062 C   0  0  1  0  0  0  0  0  0  0  0  0
   25.0711   11.0108    1.9005 O   0  0  0  0  0  0  0  0  0  0  0  0
   27.0535   11.9981   -0.5205 C   0  0  1  0  0  0  0  0  0  0  0  0
   27.0618   11.1340   -1.8158 C   0  0  2  0  0  0  0  0  0  0  0  0
   28.2083   11.4510   -2.5403 O   0  0  0  0  0  0  0  0  0  0  0  0
   25.8500   11.6788   -2.4504 C   0  0  1  0  0  0  0  0  0  0  0  0
   24.7859   11.9235   -1.3362 C   0  0  2  0  0  0  0  0  0  0  0  0
   25.6531   12.3827   -0.3284 O   0  0  0  0  0  0  0  0  0  0  0  0
   23.8302   10.7821   -0.9860 C   0  0  0  0  0  0  0  0  0  0  0  0
   24.6421    9.6936   -0.5877 O   0  0  0  0  0  0  0  0  0  0  0  0
   25.4294   13.4529   -4.0934 C   0  0  2  0  0  0  0  0  0  0  0  0
   26.2653   12.9413   -3.1431 O   0  0  0  0  0  0  0  0  0  0  0  0
   26.0284   14.6371   -4.7933 C   0  0  1  0  0  0  0  0  0  0  0  0
   20.5630   15.1957   -4.8374 N   0  0  0  0  0  0  0  0  0  0  0  0
   22.7506    7.0724    6.4244 O   0  0  0  0  0  0  0  0  0  0  0  0
   24.9921   15.2067   -5.8381 C   0  0  2  0  0  0  0  0  0  0  0  0
   23.6137   15.6040   -5.2049 C   0  0  1  0  0  0  0  0  0  0  0  0
   23.0532   14.4473   -4.5465 C   0  0  1  0  0  0  0  0  0  0  0  0
   24.0315   13.8797   -3.5357 O   0  0  0  0  0  0  0  0  0  0  0  0
   21.6705   14.8166   -3.8501 C   0  0  0  0  0  0  0  0  0  0  0  0
   26.3139   15.6551   -3.8614 N   0  0  0  0  0  0  0  0  0  0  0  0
   31.8081    9.1304   -2.6220 O   0  0  0  0  0  0  0  0  0  0  0  0
   24.3311    8.5473    7.1219 C   0  0  0  0  0  0  0  0  0  0  0  0
   23.7981   16.4238   -4.4229 O   0  0  0  0  0  0  0  0  0  0  0  0
   24.7757   14.3842   -6.6127 O   0  0  0  0  0  0  0  0  0  0  0  0
   24.4910    7.9093    4.8485 C   0  0  0  0  0  0  0  0  0  0  0  0
   24.4783    9.9164    7.1303 C   0  0  0  0  0  0  0  0  0  0  0  0
   23.5290    8.2246    6.1081 C   0  0  1  0  0  0  0  0  0  0  0  0
   32.3144    6.6800   -1.7053 F   0  0  0  0  0  0  0  0  0  0  0  0
  1  2  1  6  0  0  0
  1 10  1  0  0  0  0
  1  3  1  0  0  0  0
  3  4  1  6  0  0  0
  3  6  1  0  0  0  0
  5 46  2  0  0  0  0
  6 42  1  6  0  0  0
  6  8  1  0  0  0  0
  7 47  1  0  0  0  0
  8  9  1  0  0  0  0
  8 49  1  1  0  0  0
  9 10  1  0  0  0  0
  9 11  1  1  0  0  0
 11 12  1  0  0  0  0
 13 14  1  1  0  0  0
 13 15  1  0  0  0  0
 13 21  1  0  0  0  0
 14 46  1  0  0  0  0
 15 16  1  0  0  0  0
 16 17  1  1  0  0  0
 16 18  1  0  0  0  0
 18  2  1  6  0  0  0
 18 19  1  0  0  0  0
 19 20  1  1  0  0  0
 19 21  1  0  0  0  0
 21 22  1  6  0  0  0
 23 20  1  1  0  0  0
 23 24  1  0  0  0  0
 23 28  1  0  0  0  0
 24 25  1  6  0  0  0
 24 26  1  0  0  0  0
 26 27  1  0  0  0  0
 26 32  1  1  0  0  0
 27 28  1  0  0  0  0
 27 29  1  1  0  0  0
 29 30  1  0  0  0  0
 31 32  1  1  0  0  0
 31 33  1  0  0  0  0
 31 39  1  0  0  0  0
 33 36  1  0  0  0  0
 33 41  1  1  0  0  0
 34 40  1  0  0  0  0
 35 48  1  0  0  0  0
 36 37  1  0  0  0  0
 36 45  1  6  0  0  0
 37 38  1  0  0  0  0
 37 44  1  1  0  0  0
 38 39  1  0  0  0  0
 38 40  1  1  0  0  0
 43 47  1  0  0  0  0
 46 48  1  0  0  0  0
 48 43  1  1  0  0  0
M  END
>  <CHROM.1>
-151.20642885,-58.65096812,64.89988674,-69.54342900,147.14957972,-59.45534529
162.91072452,58.39547861,-174.50542336,65.66069258,175.29652089,-147.57918187
-18.29888863,26.76387666,10.50930336,-0.13715960,-1.21166972,0.53350969,-1.04637537

>  <Name>
ligand

>  <RI>
0

>  <Rbt.Current_Directory>
/home/itssahil/PROJECTS/Mol_Feturizer/New_Systems/rnas/4PDQ

>  <Rbt.Executable>
rbdock ($Id: //depot/dev/client3/rdock/2013.1/src/exe/rbdock.cxx#4 $)

>  <Rbt.Library>
libRbt.so (2013.1, Build901 2013/11/27)

>  <Rbt.Parameter_File>
/export/apps/rDock/src/rDock_2013.1_src/data/scripts/dock_solv.prm

>  <Rbt.Receptor>
prm/pocket_docking_6.prm

>  <SCORE>
-13.9256

>  <SCORE.INTER>
-5.76367

>  <SCORE.INTER.CONST>
1

>  <SCORE.INTER.POLAR>
0

>  <SCORE.INTER.ROT>
13

>  <SCORE.INTER.SOLV>
18.7898

>  <SCORE.INTER.VDW>
-22.3724

>  <SCORE.INTER.norm>
-0.117626

>  <SCORE.INTRA>
-8.16189

>  <SCORE.INTRA.DIHEDRAL>
-21.0272

>  <SCORE.INTRA.DIHEDRAL.0>
34.5115

>  <SCORE.INTRA.POLAR>
0

>  <SCORE.INTRA.POLAR.0>
0

>  <SCORE.INTRA.REPUL>
0

>  <SCORE.INTRA.REPUL.0>
0

>  <SCORE.INTRA.SOLV>
1.04257

>  <SCORE.INTRA.SOLV.lig_0>
-122.812

>  <SCORE.INTRA.VDW>
1.8304

>  <SCORE.INTRA.VDW.0>
-7.46208

>  <SCORE.INTRA.norm>
-0.166569

>  <SCORE.RESTR>
0

>  <SCORE.RESTR.CAVITY>
0

>  <SCORE.RESTR.norm>
0

>  <SCORE.SYSTEM>
0

>  <SCORE.SYSTEM.CONST>
0

>  <SCORE.SYSTEM.DIHEDRAL>
0

>  <SCORE.SYSTEM.SOLV>
0

>  <SCORE.SYSTEM.norm>
0

>  <SCORE.heavy>
49

>  <SCORE.norm>
-0.284195

>  <RMSD>
10.487

$$$$
ligand
 OpenBabel11021811513D
libRbt.so/2013.1/901 2013/11/27
 49 52  0  0  0  0  0  0  0  0999 V2000
   26.4388   14.5459    6.8060 C   0  0  2  0  0  0  0  0  0  0  0  0
   26.3534   14.5866    8.1999 O   0  0  0  0  0  0  0  0  0  0  0  0
   27.5373   15.5589    6.3117 C   0  0  2  0  0  0  0  0  0  0  0  0
   28.8737   15.1886    6.9356 N   0  0  0  0  0  0  0  0  0  0  0  0
   24.8448    8.0952    9.3803 O   0  0  0  0  0  0  0  0  0  0  0  0
   27.1316   17.0087    6.6658 C   0  0  2  0  0  0  0  0  0  0  0  0
   27.9916    5.0336   13.1547 N   0  0  0  0  0  0  0  0  0  0  0  0
   25.7702   17.3526    6.0414 C   0  0  2  0  0  0  0  0  0  0  0  0
   24.6352   16.3494    6.5160 C   0  0  2  0  0  0  0  0  0  0  0  0
   25.1031   14.9289    6.1945 O   0  0  0  0  0  0  0  0  0  0  0  0
   23.2722   16.6697    5.8369 C   0  0  0  0  0  0  0  0  0  0  0  0
   22.3657   15.5779    5.8276 N   0  0  0  0  0  0  0  0  0  0  0  0
   26.3430   10.5559    9.7988 C   0  0  2  0  0  0  0  0  0  0  0  0
   26.2917    9.4491   10.7985 N   0  0  0  0  0  0  0  0  0  0  0  0
   27.3651   11.6552   10.3674 C   0  0  0  0  0  0  0  0  0  0  0  0
   27.4990   12.8547    9.3568 C   0  0  2  0  0  0  0  0  0  0  0  0
   28.4177   13.8786    9.8760 N   0  0  0  0  0  0  0  0  0  0  0  0
   26.1243   13.5129    9.1243 C   0  0  2  0  0  0  0  0  0  0  0  0
   25.0900   12.4536    8.5667 C   0  0  2  0  0  0  0  0  0  0  0  0
   23.8189   13.1787    8.3723 O   0  0  0  0  0  0  0  0  0  0  0  0
   24.9221   11.2695    9.6489 C   0  0  1  0  0  0  0  0  0  0  0  0
   24.0033   10.3527    9.1439 O   0  0  0  0  0  0  0  0  0  0  0  0
   23.4335   14.2472    8.9827 C   0  0  1  0  0  0  0  0  0  0  0  0
   21.8929   14.4309    9.1150 C   0  0  2  0  0  0  0  0  0  0  0  0
   21.4469   15.1541    8.0114 O   0  0  0  0  0  0  0  0  0  0  0  0
   21.8739   15.2449   10.3418 C   0  0  1  0  0  0  0  0  0  0  0  0
   22.9712   14.6969   11.3058 C   0  0  2  0  0  0  0  0  0  0  0  0
   23.9534   14.4007   10.3435 O   0  0  0  0  0  0  0  0  0  0  0  0
   22.5832   13.5917   12.2890 C   0  0  0  0  0  0  0  0  0  0  0  0
   23.7967   13.0396   12.7636 O   0  0  0  0  0  0  0  0  0  0  0  0
   23.3816   17.1675   10.1096 C   0  0  2  0  0  0  0  0  0  0  0  0
   22.1296   16.6590    9.9162 O   0  0  0  0  0  0  0  0  0  0  0  0
   23.5297   17.8039   11.4602 C   0  0  1  0  0  0  0  0  0  0  0  0
   25.9850   21.2146    8.5096 N   0  0  0  0  0  0  0  0  0  0  0  0
   24.5561    6.1198   11.3616 O   0  0  0  0  0  0  0  0  0  0  0  0
   24.9790   18.4132   11.5954 C   0  0  2  0  0  0  0  0  0  0  0  0
   25.3316   19.4529   10.4759 C   0  0  1  0  0  0  0  0  0  0  0  0
   25.1915   18.8154    9.1877 C   0  0  1  0  0  0  0  0  0  0  0  0
   23.8049   18.2202    9.0325 O   0  0  0  0  0  0  0  0  0  0  0  0
   25.4980   19.8489    8.0168 C   0  0  0  0  0  0  0  0  0  0  0  0
   22.5994   18.8527   11.6043 N   0  0  0  0  0  0  0  0  0  0  0  0
   27.9234   17.7268    6.2614 O   0  0  0  0  0  0  0  0  0  0  0  0
   26.7582    6.6279   11.5910 C   0  0  0  0  0  0  0  0  0  0  0  0
   24.5861   20.3231   10.5430 O   0  0  0  0  0  0  0  0  0  0  0  0
   25.7387   17.5546   11.5010 O   0  0  0  0  0  0  0  0  0  0  0  0
   25.4724    8.2460   10.4382 C   0  0  0  0  0  0  0  0  0  0  0  0
   26.9158    5.8466   12.7138 C   0  0  0  0  0  0  0  0  0  0  0  0
   25.5262    7.1349   11.6104 C   0  0  1  0  0  0  0  0  0  0  0  0
   25.8556   17.2856    4.6394 F   0  0  0  0  0  0  0  0  0  0  0  0
  1  2  1  1  0  0  0
  1 10  1  0  0  0  0
  1  3  1  0  0  0  0
  3  4  1  1  0  0  0
  3  6  1  0  0  0  0
  5 46  2  0  0  0  0
  6 42  1  6  0  0  0
  6  8  1  0  0  0  0
  7 47  1  0  0  0  0
  8  9  1  0  0  0  0
  8 49  1  6  0  0  0
  9 10  1  0  0  0  0
  9 11  1  6  0  0  0
 11 12  1  0  0  0  0
 13 14  1  1  0  0  0
 13 15  1  0  0  0  0
 13 21  1  0  0  0  0
 14 46  1  0  0  0  0
 15 16  1  0  0  0  0
 16 17  1  1  0  0  0
 16 18  1  0  0  0  0
 18  2  1  6  0  0  0
 18 19  1  0  0  0  0
 19 20  1  1  0  0  0
 19 21  1  0  0  0  0
 21 22  1  6  0  0  0
 23 20  1  1  0  0  0
 23 24  1  0  0  0  0
 23 28  1  0  0  0  0
 24 25  1  6  0  0  0
 24 26  1  0  0  0  0
 26 27  1  0  0  0  0
 26 32  1  6  0  0  0
 27 28  1  0  0  0  0
 27 29  1  6  0  0  0
 29 30  1  0  0  0  0
 31 32  1  6  0  0  0
 31 33  1  0  0  0  0
 31 39  1  0  0  0  0
 33 36  1  0  0  0  0
 33 41  1  6  0  0  0
 34 40  1  0  0  0  0
 35 48  1  0  0  0  0
 36 37  1  0  0  0  0
 36 45  1  6  0  0  0
 37 38  1  0  0  0  0
 37 44  1  6  0  0  0
 38 39  1  0  0  0  0
 38 40  1  6  0  0  0
 43 47  1  0  0  0  0
 46 48  1  0  0  0  0
 48 43  1  6  0  0  0
M  END
>  <CHROM.1>
-142.86687628,83.11796482,158.69985448,-175.58319786,-24.91798241,-152.39123914
-102.24949096,164.47086082,-88.98462522,5.20803160,176.60959738,-70.68132201
-11.52405121,25.04108622,14.26985735,9.28908867,-1.72671741,-0.87037360,2.75770751

>  <Name>
ligand

>  <RI>
0

>  <Rbt.Current_Directory>
/home/itssahil/PROJECTS/Mol_Feturizer/New_Systems/rnas/4PDQ

>  <Rbt.Executable>
rbdock ($Id: //depot/dev/client3/rdock/2013.1/src/exe/rbdock.cxx#4 $)

>  <Rbt.Library>
libRbt.so (2013.1, Build901 2013/11/27)

>  <Rbt.Parameter_File>
/export/apps/rDock/src/rDock_2013.1_src/data/scripts/dock_solv.prm

>  <Rbt.Receptor>
prm/blind_docking_100.prm

>  <SCORE>
25.2812

>  <SCORE.INTER>
12.9208

>  <SCORE.INTER.CONST>
1

>  <SCORE.INTER.POLAR>
0

>  <SCORE.INTER.ROT>
13

>  <SCORE.INTER.SOLV>
35.2916

>  <SCORE.INTER.VDW>
-15.4167

>  <SCORE.INTER.norm>
0.263689

>  <SCORE.INTRA>
6.34876

>  <SCORE.INTRA.DIHEDRAL>
-1.53804

>  <SCORE.INTRA.DIHEDRAL.0>
34.5115

>  <SCORE.INTRA.POLAR>
0

>  <SCORE.INTRA.POLAR.0>
0

>  <SCORE.INTRA.REPUL>
0

>  <SCORE.INTRA.REPUL.0>
0

>  <SCORE.INTRA.SOLV>
4.95705

>  <SCORE.INTRA.SOLV.lig_0>
-122.812

>  <SCORE.INTRA.VDW>
4.63925

>  <SCORE.INTRA.VDW.0>
-7.46208

>  <SCORE.INTRA.norm>
0.129566

>  <SCORE.RESTR>
6.01164

>  <SCORE.RESTR.CAVITY>
6.01164

>  <SCORE.RESTR.norm>
0.122687

>  <SCORE.SYSTEM>
0

>  <SCORE.SYSTEM.CONST>
0

>  <SCORE.SYSTEM.DIHEDRAL>
0

>  <SCORE.SYSTEM.SOLV>
0

>  <SCORE.SYSTEM.norm>
0

>  <SCORE.heavy>
49

>  <SCORE.norm>
0.515942

>  <RMSD>
10.498

$$$$
ligand
 OpenBabel11021811513D
libRbt.so/2013.1/901 2013/11/27
 49 52  0  0  0  0  0  0  0  0999 V2000
   22.1313   17.5192    8.1170 C   0  0  2  0  0  0  0  0  0  0  0  0
   22.1872   16.6065    9.1733 O   0  0  0  0  0  0  0  0  0  0  0  0
   21.8541   16.7551    6.7692 C   0  0  2  0  0  0  0  0  0  0  0  0
   20.5400   15.9989    6.8862 N   0  0  0  0  0  0  0  0  0  0  0  0
   28.4555   16.5141   11.7862 O   0  0  0  0  0  0  0  0  0  0  0  0
   23.0263   15.8018    6.4395 C   0  0  2  0  0  0  0  0  0  0  0  0
   29.4731   19.8766   13.0611 N   0  0  0  0  0  0  0  0  0  0  0  0
   24.3450   16.5853    6.3461 C   0  0  2  0  0  0  0  0  0  0  0  0
   24.6581   17.3720    7.6888 C   0  0  2  0  0  0  0  0  0  0  0  0
   23.4519   18.2592    8.0024 O   0  0  0  0  0  0  0  0  0  0  0  0
   25.9656   18.2070    7.5676 C   0  0  0  0  0  0  0  0  0  0  0  0
   26.7866   17.8311    6.4727 N   0  0  0  0  0  0  0  0  0  0  0  0
   25.6845   17.3897   11.6143 C   0  0  2  0  0  0  0  0  0  0  0  0
   26.5257   17.5709   12.8336 N   0  0  0  0  0  0  0  0  0  0  0  0
   24.3217   18.2017   11.8593 C   0  0  0  0  0  0  0  0  0  0  0  0
   23.3795   18.0839   10.6036 C   0  0  2  0  0  0  0  0  0  0  0  0
   22.1185   18.8073   10.8238 N   0  0  0  0  0  0  0  0  0  0  0  0
   23.0453   16.6051   10.3237 C   0  0  2  0  0  0  0  0  0  0  0  0
   24.3695   15.7740   10.0816 C   0  0  2  0  0  0  0  0  0  0  0  0
   23.9442   14.3853    9.8172 O   0  0  0  0  0  0  0  0  0  0  0  0
   25.2866   15.8571   11.4058 C   0  0  1  0  0  0  0  0  0  0  0  0
   26.4419   15.1141   11.1758 O   0  0  0  0  0  0  0  0  0  0  0  0
   24.6932   13.3360    9.7893 C   0  0  1  0  0  0  0  0  0  0  0  0
   24.7333   12.4998   11.1022 C   0  0  2  0  0  0  0  0  0  0  0  0
   25.7851   12.9716   11.8839 O   0  0  0  0  0  0  0  0  0  0  0  0
   25.0399   11.1848   10.5151 C   0  0  1  0  0  0  0  0  0  0  0  0
   24.2367   11.0471    9.1850 C   0  0  2  0  0  0  0  0  0  0  0  0
   24.3659   12.3734    8.7348 O   0  0  0  0  0  0  0  0  0  0  0  0
   22.8294   10.4518    9.2486 C   0  0  0  0  0  0  0  0  0  0  0  0
   22.9568    9.2024    9.9008 O   0  0  0  0  0  0  0  0  0  0  0  0
   27.2544   10.2700   11.0470 C   0  0  2  0  0  0  0  0  0  0  0  0
   26.5232   11.1507   10.3032 O   0  0  0  0  0  0  0  0  0  0  0  0
   26.6595    8.8926   11.0364 C   0  0  1  0  0  0  0  0  0  0  0  0
   27.0178   10.6667   15.5452 N   0  0  0  0  0  0  0  0  0  0  0  0
   30.1013   17.5683   13.8921 O   0  0  0  0  0  0  0  0  0  0  0  0
   27.5233    7.9427   11.9538 C   0  0  2  0  0  0  0  0  0  0  0  0
   27.6632    8.4505   13.4307 C   0  0  1  0  0  0  0  0  0  0  0  0
   28.2460    9.7717   13.4154 C   0  0  1  0  0  0  0  0  0  0  0  0
   27.4333   10.7056   12.5388 O   0  0  0  0  0  0  0  0  0  0  0  0
   28.3665   10.3460   14.8949 C   0  0  0  0  0  0  0  0  0  0  0  0
   25.3496    8.9286   11.5552 N   0  0  0  0  0  0  0  0  0  0  0  0
   22.8207   15.2903    5.4383 O   0  0  0  0  0  0  0  0  0  0  0  0
   28.1547   18.4234   14.6916 C   0  0  0  0  0  0  0  0  0  0  0  0
   26.6142    8.5123   13.8925 O   0  0  0  0  0  0  0  0  0  0  0  0
   28.5869    7.8943   11.5183 O   0  0  0  0  0  0  0  0  0  0  0  0
   27.9349   17.0623   12.7681 C   0  0  0  0  0  0  0  0  0  0  0  0
   28.3484   19.4793   13.8292 C   0  0  0  0  0  0  0  0  0  0  0  0
   28.7179   17.3423   14.1537 C   0  0  1  0  0  0  0  0  0  0  0  0
   24.2739   17.5196    5.2976 F   0  0  0  0  0  0  0  0  0  0  0  0
  1  2  1  1  0  0  0
  1 10  1  0  0  0  0
  1  3  1  0  0  0  0
  3  4  1  1  0  0  0
  3  6  1  0  0  0  0
  5 46  2  0  0  0  0
  6 42  1  6  0  0  0
  6  8  1  0  0  0  0
  7 47  1  0  0  0  0
  8  9  1  0  0  0  0
  8 49  1  6  0  0  0
  9 10  1  0  0  0  0
  9 11  1  6  0  0  0
 11 12  1  0  0  0  0
 13 14  1  1  0  0  0
 13 15  1  0  0  0  0
 13 21  1  0  0  0  0
 14 46  1  0  0  0  0
 15 16  1  0  0  0  0
 16 17  1  1  0  0  0
 16 18  1  0  0  0  0
 18  2  1  6  0  0  0
 18 19  1  0  0  0  0
 19 20  1  1  0  0  0
 19 21  1  0  0  0  0
 21 22  1  6  0  0  0
 23 20  1  1  0  0  0
 23 24  1  0  0  0  0
 23 28  1  0  0  0  0
 24 25  1  1  0  0  0
 24 26  1  0  0  0  0
 26 27  1  0  0  0  0
 26 32  1  6  0  0  0
 27 28  1  0  0  0  0
 27 29  1  1  0  0  0
 29 30  1  0  0  0  0
 31 32  1  6  0  0  0
 31 33  1  0  0  0  0
 31 39  1  0  0  0  0
 33 36  1  0  0  0  0
 33 41  1  1  0  0  0
 34 40  1  0  0  0  0
 35 48  1  0  0  0  0
 36 37  1  0  0  0  0
 36 45  1  6  0  0  0
 37 38  1  0  0  0  0
 37 44  1  6  0  0  0
 38 39  1  0  0  0  0
 38 40  1  1  0  0  0
 43 47  1  0  0  0  0
 46 48  1  0  0  0  0
 48 43  1  6  0  0  0
M  END
>  <CHROM.1>
142.35871427,28.86927083,-16.20555280,-171.67150132,-167.45113736,96.83742731
113.50980749,-54.28955357,48.15516583,-68.78953305,-41.37461889,57.06863470
31.15159205,25.51708350,14.36132736,10.58530288,2.05968435,-0.86425767,-0.06985249

>  <Name>
ligand

>  <RI>
0

>  <Rbt.Current_Directory>
/home/itssahil/PROJECTS/Mol_Feturizer/New_Systems/rnas/4PDQ

>  <Rbt.Executable>
rbdock ($Id: //depot/dev/client3/rdock/2013.1/src/exe/rbdock.cxx#4 $)

>  <Rbt.Library>
libRbt.so (2013.1, Build901 2013/11/27)

>  <Rbt.Parameter_File>
/export/apps/rDock/src/rDock_2013.1_src/data/scripts/dock_solv.prm

>  <Rbt.Receptor>
prm/blind_docking_60.prm

>  <SCORE>
20.9705

>  <SCORE.INTER>
1.97872

>  <SCORE.INTER.CONST>
1

>  <SCORE.INTER.POLAR>
0

>  <SCORE.INTER.ROT>
13

>  <SCORE.INTER.SOLV>
32.2229

>  <SCORE.INTER.VDW>
-21.6885

>  <SCORE.INTER.norm>
0.040382

>  <SCORE.INTRA>
16.617

>  <SCORE.INTRA.DIHEDRAL>
-4.60876

>  <SCORE.INTRA.DIHEDRAL.0>
34.5115

>  <SCORE.INTRA.POLAR>
0

>  <SCORE.INTRA.POLAR.0>
0

>  <SCORE.INTRA.REPUL>
0

>  <SCORE.INTRA.REPUL.0>
0

>  <SCORE.INTRA.SOLV>
7.9952

>  <SCORE.INTRA.SOLV.lig_0>
-122.812

>  <SCORE.INTRA.VDW>
14.9238

>  <SCORE.INTRA.VDW.0>
-7.46208

>  <SCORE.INTRA.norm>
0.339122

>  <SCORE.RESTR>
2.3748

>  <SCORE.RESTR.CAVITY>
2.3748

>  <SCORE.RESTR.norm>
0.0484654

>  <SCORE.SYSTEM>
0

>  <SCORE.SYSTEM.CONST>
0

>  <SCORE.SYSTEM.DIHEDRAL>
0

>  <SCORE.SYSTEM.SOLV>
0

>  <SCORE.SYSTEM.norm>
0

>  <SCORE.heavy>
49

>  <SCORE.norm>
0.427969

>  <RMSD>
10.501

$$$$
ligand
 OpenBabel11021811513D
libRbt.so/2013.1/901 2013/11/27
 49 52  0  0  0  0  0  0  0  0999 V2000
   27.6271   14.8097    8.3544 C   0  0  2  0  0  0  0  0  0  0  0  0
   26.3417   14.3828    8.6971 O   0  0  0  0  0  0  0  0  0  0  0  0
   27.6455   15.2881    6.8550 C   0  0  2  0  0  0  0  0  0  0  0  0
   26.6468   16.4216    6.6812 N   0  0  0  0  0  0  0  0  0  0  0  0
   27.6077   10.5140   14.2040 O   0  0  0  0  0  0  0  0  0  0  0  0
   27.3287   14.1067    5.9087 C   0  0  2  0  0  0  0  0  0  0  0  0
   23.3499    9.0509   17.5459 N   0  0  0  0  0  0  0  0  0  0  0  0
   28.3383   12.9670    6.1166 C   0  0  2  0  0  0  0  0  0  0  0  0
   28.3497   12.4584    7.6202 C   0  0  2  0  0  0  0  0  0  0  0  0
   28.6130   13.6672    8.5202 O   0  0  0  0  0  0  0  0  0  0  0  0
   29.4132   11.3431    7.8357 C   0  0  0  0  0  0  0  0  0  0  0  0
   29.3126   10.6897    9.0915 N   0  0  0  0  0  0  0  0  0  0  0  0
   26.4707   12.7365   12.7065 C   0  0  2  0  0  0  0  0  0  0  0  0
   26.0167   12.3553   14.0760 N   0  0  0  0  0  0  0  0  0  0  0  0
   26.0066   14.2537   12.4635 C   0  0  0  0  0  0  0  0  0  0  0  0
   26.4693   14.7482   11.0423 C   0  0  2  0  0  0  0  0  0  0  0  0
   26.0323   16.1309   10.7996 N   0  0  0  0  0  0  0  0  0  0  0  0
   25.8666   13.8513    9.9426 C   0  0  2  0  0  0  0  0  0  0  0  0
   26.3020   12.3453   10.1556 C   0  0  2  0  0  0  0  0  0  0  0  0
   25.6849   11.5766    9.0566 O   0  0  0  0  0  0  0  0  0  0  0  0
   25.7598   11.8437   11.5894 C   0  0  1  0  0  0  0  0  0  0  0  0
   26.1458   10.5157   11.7543 O   0  0  0  0  0  0  0  0  0  0  0  0
   25.8824   10.3346    8.7716 C   0  0  1  0  0  0  0  0  0  0  0  0
   24.6124    9.4337    8.7621 C   0  0  2  0  0  0  0  0  0  0  0  0
   24.4526    8.8975   10.0376 O   0  0  0  0  0  0  0  0  0  0  0  0
   25.0712    8.4185    7.7994 C   0  0  1  0  0  0  0  0  0  0  0  0
   25.8759    9.1424    6.6761 C   0  0  2  0  0  0  0  0  0  0  0  0
   26.5291   10.0945    7.4794 O   0  0  0  0  0  0  0  0  0  0  0  0
   25.1123    9.6491    5.4517 C   0  0  0  0  0  0  0  0  0  0  0  0
   24.1776   10.5970    5.9319 O   0  0  0  0  0  0  0  0  0  0  0  0
   25.2781    6.3692    9.1339 C   0  0  2  0  0  0  0  0  0  0  0  0
   25.9058    7.4451    8.5754 O   0  0  0  0  0  0  0  0  0  0  0  0
   26.0605    5.7893   10.2753 C   0  0  1  0  0  0  0  0  0  0  0  0
   23.3859    3.4975    6.2681 N   0  0  0  0  0  0  0  0  0  0  0  0
   26.0576   12.1215   16.9339 O   0  0  0  0  0  0  0  0  0  0  0  0
   25.3049    4.5235   10.8380 C   0  0  2  0  0  0  0  0  0  0  0  0
   25.0395    3.4174    9.7586 C   0  0  1  0  0  0  0  0  0  0  0  0
   24.2779    3.9961    8.6767 C   0  0  1  0  0  0  0  0  0  0  0  0
   24.9837    5.2169    8.1176 O   0  0  0  0  0  0  0  0  0  0  0  0
   24.0222    2.9176    7.5345 C   0  0  0  0  0  0  0  0  0  0  0  0
   27.3320    5.3767    9.8286 N   0  0  0  0  0  0  0  0  0  0  0  0
   27.3882   14.4695    4.8265 O   0  0  0  0  0  0  0  0  0  0  0  0
   24.8856   10.4026   16.0218 C   0  0  0  0  0  0  0  0  0  0  0  0
   26.0513    3.0599    9.3512 O   0  0  0  0  0  0  0  0  0  0  0  0
   24.2758    4.8629   11.2240 O   0  0  0  0  0  0  0  0  0  0  0  0
   26.6983   11.1826   14.7155 C   0  0  0  0  0  0  0  0  0  0  0  0
   24.4934    9.8184   17.2055 C   0  0  0  0  0  0  0  0  0  0  0  0
   26.1082   10.9036   16.1938 C   0  0  1  0  0  0  0  0  0  0  0  0
   29.6335   13.4097    5.7942 F   0  0  0  0  0  0  0  0  0  0  0  0
  1  2  1  6  0  0  0
  1 10  1  0  0  0  0
  1  3  1  0  0  0  0
  3  4  1  1  0  0  0
  3  6  1  0  0  0  0
  5 46  2  0  0  0  0
  6 42  1  6  0  0  0
  6  8  1  0  0  0  0
  7 47  1  0  0  0  0
  8  9  1  0  0  0  0
  8 49  1  1  0  0  0
  9 10  1  0  0  0  0
  9 11  1  6  0  0  0
 11 12  1  0  0  0  0
 13 14  1  1  0  0  0
 13 15  1  0  0  0  0
 13 21  1  0  0  0  0
 14 46  1  0  0  0  0
 15 16  1  0  0  0  0
 16 17  1  6  0  0  0
 16 18  1  0  0  0  0
 18  2  1  6  0  0  0
 18 19  1  0  0  0  0
 19 20  1  6  0  0  0
 19 21  1  0  0  0  0
 21 22  1  1  0  0  0
 23 20  1  6  0  0  0
 23 24  1  0  0  0  0
 23 28  1  0  0  0  0
 24 25  1  1  0  0  0
 24 26  1  0  0  0  0
 26 27  1  0  0  0  0
 26 32  1  1  0  0  0
 27 28  1  0  0  0  0
 27 29  1  6  0  0  0
 29 30  1  0  0  0  0
 31 32  1  6  0  0  0
 31 33  1  0  0  0  0
 31 39  1  0  0  0  0
 33 36  1  0  0  0  0
 33 41  1  6  0  0  0
 34 40  1  0  0  0  0
 35 48  1  0  0  0  0
 36 37  1  0  0  0  0
 36 45  1  6  0  0  0
 37 38  1  0  0  0  0
 37 44  1  6  0  0  0
 38 39  1  0  0  0  0
 38 40  1  6  0  0  0
 43 47  1  0  0  0  0
 46 48  1  0  0  0  0
 48 43  1  6  0  0  0
M  END
>  <CHROM.1>
179.03844119,44.16870352,-169.62219129,-160.30486473,172.82337593,122.40855948
90.02829413,61.27226757,-158.00183427,-172.21405668,-173.99605428,-76.72405689
130.88633311,26.14434212,10.23196573,9.82311363,-0.36657026,-1.30142988,-2.07449430

>  <Name>
ligand

>  <RI>
0

>  <Rbt.Current_Directory>
/home/itssahil/PROJECTS/Mol_Feturizer/New_Systems/rnas/4PDQ

>  <Rbt.Executable>
rbdock ($Id: //depot/dev/client3/rdock/2013.1/src/exe/rbdock.cxx#4 $)

>  <Rbt.Library>
libRbt.so (2013.1, Build901 2013/11/27)

>  <Rbt.Parameter_File>
/export/apps/rDock/src/rDock_2013.1_src/data/scripts/dock_solv.prm

>  <Rbt.Receptor>
prm/pocket_docking_8.prm

>  <SCORE>
-12.1734

>  <SCORE.INTER>
-3.83349

>  <SCORE.INTER.CONST>
1

>  <SCORE.INTER.POLAR>
0

>  <SCORE.INTER.ROT>
13

>  <SCORE.INTER.SOLV>
18.7568

>  <SCORE.INTER.VDW>
-21.0746

>  <SCORE.INTER.norm>
-0.0782346

>  <SCORE.INTRA>
-8.33991

>  <SCORE.INTRA.DIHEDRAL>
-17.2648

>  <SCORE.INTRA.DIHEDRAL.0>
34.5115

>  <SCORE.INTRA.POLAR>
0

>  <SCORE.INTRA.POLAR.0>
0

>  <SCORE.INTRA.REPUL>
0

>  <SCORE.INTRA.REPUL.0>
0

>  <SCORE.INTRA.SOLV>
-0.276856

>  <SCORE.INTRA.SOLV.lig_0>
-122.812

>  <SCORE.INTRA.VDW>
0.4309

>  <SCORE.INTRA.VDW.0>
-7.46208

>  <SCORE.INTRA.norm>
-0.170202

>  <SCORE.RESTR>
0

>  <SCORE.RESTR.CAVITY>
0

>  <SCORE.RESTR.norm>
0

>  <SCORE.SYSTEM>
0

>  <SCORE.SYSTEM.CONST>
0

>  <SCORE.SYSTEM.DIHEDRAL>
0

>  <SCORE.SYSTEM.SOLV>
0

>  <SCORE.SYSTEM.norm>
0

>  <SCORE.heavy>
49

>  <SCORE.norm>
-0.248437

>  <RMSD>
10.512

$$$$
ligand
 OpenBabel11021811513D
libRbt.so/2013.1/901 2013/11/27
 49 52  0  0  0  0  0  0  0  0999 V2000
   27.3999    7.3453    1.2092 C   0  0  2  0  0  0  0  0  0  0  0  0
   27.5423    8.5124    0.4545 O   0  0  0  0  0  0  0  0  0  0  0  0
   28.8054    6.8882    1.7504 C   0  0  2  0  0  0  0  0  0  0  0  0
   29.3977    8.0006    2.6013 N   0  0  0  0  0  0  0  0  0  0  0  0
   22.5600   10.0504   -3.6831 O   0  0  0  0  0  0  0  0  0  0  0  0
   29.7404    6.5176    0.5756 C   0  0  2  0  0  0  0  0  0  0  0  0
   18.4348   12.5450   -5.4591 N   0  0  0  0  0  0  0  0  0  0  0  0
   29.1121    5.4067   -0.2804 C   0  0  2  0  0  0  0  0  0  0  0  0
   27.6900    5.8312   -0.8434 C   0  0  2  0  0  0  0  0  0  0  0  0
   26.8194    6.2391    0.3466 O   0  0  0  0  0  0  0  0  0  0  0  0
   27.0358    4.6812   -1.6625 C   0  0  0  0  0  0  0  0  0  0  0  0
   26.7141    3.5364   -0.8879 N   0  0  0  0  0  0  0  0  0  0  0  0
   24.7362   10.8224   -1.9103 C   0  0  2  0  0  0  0  0  0  0  0  0
   23.5881   11.7188   -2.2348 N   0  0  0  0  0  0  0  0  0  0  0  0
   24.2089    9.7557   -0.8329 C   0  0  0  0  0  0  0  0  0  0  0  0
   25.3571    8.7489   -0.4503 C   0  0  2  0  0  0  0  0  0  0  0  0
   24.8920    7.7786    0.5517 N   0  0  0  0  0  0  0  0  0  0  0  0
   26.5613    9.5109    0.1381 C   0  0  2  0  0  0  0  0  0  0  0  0
   27.1037   10.5754   -0.8990 C   0  0  2  0  0  0  0  0  0  0  0  0
   28.2503   11.2400   -0.2487 O   0  0  0  0  0  0  0  0  0  0  0  0
   25.9293   11.6322   -1.2238 C   0  0  1  0  0  0  0  0  0  0  0  0
   26.4282   12.5639   -2.1308 O   0  0  0  0  0  0  0  0  0  0  0  0
   29.4518   10.7846   -0.1395 C   0  0  1  0  0  0  0  0  0  0  0  0
   30.5896   11.8348   -0.3041 C   0  0  2  0  0  0  0  0  0  0  0  0
   30.9518   11.8735   -1.6485 O   0  0  0  0  0  0  0  0  0  0  0  0
   31.6179   11.1743    0.5169 C   0  0  1  0  0  0  0  0  0  0  0  0
   30.9168   10.5447    1.7601 C   0  0  2  0  0  0  0  0  0  0  0  0
   29.7406   10.1057    1.1259 O   0  0  0  0  0  0  0  0  0  0  0  0
   30.7686   11.4021    3.0179 C   0  0  0  0  0  0  0  0  0  0  0  0
   29.8554   12.4322    2.6899 O   0  0  0  0  0  0  0  0  0  0  0  0
   33.2346   10.5737   -1.2292 C   0  0  2  0  0  0  0  0  0  0  0  0
   32.2689   10.1500   -0.3624 O   0  0  0  0  0  0  0  0  0  0  0  0
   33.9061    9.4291   -1.9292 C   0  0  1  0  0  0  0  0  0  0  0  0
   37.1295   12.1104    0.5256 N   0  0  0  0  0  0  0  0  0  0  0  0
   21.9308   13.5350   -3.6950 O   0  0  0  0  0  0  0  0  0  0  0  0
   35.0412    9.9865   -2.8732 C   0  0  2  0  0  0  0  0  0  0  0  0
   36.1117   10.8548   -2.1256 C   0  0  1  0  0  0  0  0  0  0  0  0
   35.4435   11.9538   -1.4689 C   0  0  1  0  0  0  0  0  0  0  0  0
   34.3458   11.4439   -0.5544 O   0  0  0  0  0  0  0  0  0  0  0  0
   36.4890   12.8393   -0.6590 C   0  0  0  0  0  0  0  0  0  0  0  0
   34.5050    8.5706   -0.9854 N   0  0  0  0  0  0  0  0  0  0  0  0
   30.7385    6.1509    0.9948 O   0  0  0  0  0  0  0  0  0  0  0  0
   20.6581   11.8102   -4.4467 C   0  0  0  0  0  0  0  0  0  0  0  0
   36.6178   10.1992   -1.3308 O   0  0  0  0  0  0  0  0  0  0  0  0
   34.5507   10.6693   -3.6583 O   0  0  0  0  0  0  0  0  0  0  0  0
   22.5470   11.1778   -3.1688 C   0  0  0  0  0  0  0  0  0  0  0  0
   19.5084   12.5631   -4.5319 C   0  0  0  0  0  0  0  0  0  0  0  0
   21.3679   12.2560   -3.4109 C   0  0  1  0  0  0  0  0  0  0  0  0
   28.9481    4.2425    0.4910 F   0  0  0  0  0  0  0  0  0  0  0  0
  1  2  1  6  0  0  0
  1 10  1  0  0  0  0
  1  3  1  0  0  0  0
  3  4  1  6  0  0  0
  3  6  1  0  0  0  0
  5 46  2  0  0  0  0
  6 42  1  1  0  0  0
  6  8  1  0  0  0  0
  7 47  1  0  0  0  0
  8  9  1  0  0  0  0
  8 49  1  1  0  0  0
  9 10  1  0  0  0  0
  9 11  1  1  0  0  0
 11 12  1  0  0  0  0
 13 14  1  1  0  0  0
 13 15  1  0  0  0  0
 13 21  1  0  0  0  0
 14 46  1  0  0  0  0
 15 16  1  0  0  0  0
 16 17  1  1  0  0  0
 16 18  1  0  0  0  0
 18  2  1  6  0  0  0
 18 19  1  0  0  0  0
 19 20  1  1  0  0  0
 19 21  1  0  0  0  0
 21 22  1  6  0  0  0
 23 20  1  1  0  0  0
 23 24  1  0  0  0  0
 23 28  1  0  0  0  0
 24 25  1  6  0  0  0
 24 26  1  0  0  0  0
 26 27  1  0  0  0  0
 26 32  1  6  0  0  0
 27 28  1  0  0  0  0
 27 29  1  1  0  0  0
 29 30  1  0  0  0  0
 31 32  1  1  0  0  0
 31 33  1  0  0  0  0
 31 39  1  0  0  0  0
 33 36  1  0  0  0  0
 33 41  1  1  0  0  0
 34 40  1  0  0  0  0
 35 48  1  0  0  0  0
 36 37  1  0  0  0  0
 36 45  1  6  0  0  0
 37 38  1  0  0  0  0
 37 44  1  1  0  0  0
 38 39  1  0  0  0  0
 38 40  1  1  0  0  0
 43 47  1  0  0  0  0
 46 48  1  0  0  0  0
 48 43  1  6  0  0  0
M  END
>  <CHROM.1>
-157.62482757,-52.02472199,65.42568955,-77.66131514,79.29069083,141.55466266
81.07478958,67.71612161,173.44378076,-66.21122940,177.75755631,-71.40561692
-133.66709871,28.75196170,9.79129713,-0.85624434,3.03065366,-0.15882566,-0.39986102

>  <Name>
ligand

>  <RI>
0

>  <Rbt.Current_Directory>
/home/itssahil/PROJECTS/Mol_Feturizer/New_Systems/rnas/4PDQ

>  <Rbt.Executable>
rbdock ($Id: //depot/dev/client3/rdock/2013.1/src/exe/rbdock.cxx#4 $)

>  <Rbt.Library>
libRbt.so (2013.1, Build901 2013/11/27)

>  <Rbt.Parameter_File>
/export/apps/rDock/src/rDock_2013.1_src/data/scripts/dock_solv.prm

>  <Rbt.Receptor>
prm/pocket_docking_7.prm

>  <SCORE>
-8.90883

>  <SCORE.INTER>
-7.69931

>  <SCORE.INTER.CONST>
1

>  <SCORE.INTER.POLAR>
0

>  <SCORE.INTER.ROT>
13

>  <SCORE.INTER.SOLV>
17.6664

>  <SCORE.INTER.VDW>
-23.2883

>  <SCORE.INTER.norm>
-0.157129

>  <SCORE.INTRA>
-1.21294

>  <SCORE.INTRA.DIHEDRAL>
-20.7805

>  <SCORE.INTRA.DIHEDRAL.0>
34.5115

>  <SCORE.INTRA.POLAR>
0

>  <SCORE.INTRA.POLAR.0>
0

>  <SCORE.INTRA.REPUL>
0.339815

>  <SCORE.INTRA.REPUL.0>
0

>  <SCORE.INTRA.SOLV>
4.36017

>  <SCORE.INTRA.SOLV.lig_0>
-122.812

>  <SCORE.INTRA.VDW>
5.29817

>  <SCORE.INTRA.VDW.0>
-7.46208

>  <SCORE.INTRA.norm>
-0.024754

>  <SCORE.RESTR>
0.00342248

>  <SCORE.RESTR.CAVITY>
0.00342248

>  <SCORE.RESTR.norm>
6.98464e-05

>  <SCORE.SYSTEM>
0

>  <SCORE.SYSTEM.CONST>
0

>  <SCORE.SYSTEM.DIHEDRAL>
0

>  <SCORE.SYSTEM.SOLV>
0

>  <SCORE.SYSTEM.norm>
0

>  <SCORE.heavy>
49

>  <SCORE.norm>
-0.181813

>  <RMSD>
10.514

$$$$
ligand
 OpenBabel11021811513D
libRbt.so/2013.1/901 2013/11/27
 49 52  0  0  0  0  0  0  0  0999 V2000
   24.2822   12.7721   10.7623 C   0  0  2  0  0  0  0  0  0  0  0  0
   24.9138   12.2070    9.6516 O   0  0  0  0  0  0  0  0  0  0  0  0
   23.2819   13.8923   10.2914 C   0  0  2  0  0  0  0  0  0  0  0  0
   22.2545   13.2802    9.3521 N   0  0  0  0  0  0  0  0  0  0  0  0
   27.5473    7.0232   13.2794 O   0  0  0  0  0  0  0  0  0  0  0  0
   24.0502   15.0492    9.6109 C   0  0  2  0  0  0  0  0  0  0  0  0
   29.0098    4.8322    8.9776 N   0  0  0  0  0  0  0  0  0  0  0  0
   25.0950   15.6378   10.5718 C   0  0  2  0  0  0  0  0  0  0  0  0
   26.1223   14.5353   11.0706 C   0  0  2  0  0  0  0  0  0  0  0  0
   25.3161   13.3902   11.6864 O   0  0  0  0  0  0  0  0  0  0  0  0
   27.1429   15.1262   12.0859 C   0  0  0  0  0  0  0  0  0  0  0  0
   27.8609   16.2459   11.5913 N   0  0  0  0  0  0  0  0  0  0  0  0
   27.0043    8.6216   10.9077 C   0  0  2  0  0  0  0  0  0  0  0  0
   27.5692    7.2415   10.8525 N   0  0  0  0  0  0  0  0  0  0  0  0
   25.5003    8.5357   10.3536 C   0  0  0  0  0  0  0  0  0  0  0  0
   24.8166    9.9530   10.4000 C   0  0  2  0  0  0  0  0  0  0  0  0
   23.4443    9.8913    9.8759 N   0  0  0  0  0  0  0  0  0  0  0  0
   25.6146   10.9590    9.5467 C   0  0  2  0  0  0  0  0  0  0  0  0
   27.1058   11.0645   10.0647 C   0  0  2  0  0  0  0  0  0  0  0  0
   27.7776   12.0495    9.1942 O   0  0  0  0  0  0  0  0  0  0  0  0
   27.8029    9.6150    9.9453 C   0  0  1  0  0  0  0  0  0  0  0  0
   29.1149    9.7305   10.3979 O   0  0  0  0  0  0  0  0  0  0  0  0
   27.2988   13.1725    8.7788 C   0  0  1  0  0  0  0  0  0  0  0  0
   28.3174   14.1270    8.0888 C   0  0  2  0  0  0  0  0  0  0  0  0
   28.8593   14.9602    9.0646 O   0  0  0  0  0  0  0  0  0  0  0  0
   27.3805   14.8520    7.2144 C   0  0  1  0  0  0  0  0  0  0  0  0
   26.3351   13.8307    6.6692 C   0  0  2  0  0  0  0  0  0  0  0  0
   26.1860   13.0557    7.8335 O   0  0  0  0  0  0  0  0  0  0  0  0
   26.6518   13.0990    5.3641 C   0  0  0  0  0  0  0  0  0  0  0  0
   27.9842   12.6370    5.4821 O   0  0  0  0  0  0  0  0  0  0  0  0
   25.5867   16.4759    7.6251 C   0  0  2  0  0  0  0  0  0  0  0  0
   26.7587   15.9248    8.0564 O   0  0  0  0  0  0  0  0  0  0  0  0
   25.5150   16.5496    6.1283 C   0  0  1  0  0  0  0  0  0  0  0  0
   24.4314   20.0941    9.8453 N   0  0  0  0  0  0  0  0  0  0  0  0
   27.5622    4.3344   11.0406 O   0  0  0  0  0  0  0  0  0  0  0  0
   24.1618   17.2410    5.7027 C   0  0  2  0  0  0  0  0  0  0  0  0
   23.9655   18.6708    6.3158 C   0  0  1  0  0  0  0  0  0  0  0  0
   24.0286   18.5727    7.7553 C   0  0  1  0  0  0  0  0  0  0  0  0
   25.3218   17.9101    8.1909 O   0  0  0  0  0  0  0  0  0  0  0  0
   23.8776   20.0108    8.4201 C   0  0  0  0  0  0  0  0  0  0  0  0
   26.5791   17.3291    5.6318 N   0  0  0  0  0  0  0  0  0  0  0  0
   23.3080   15.8665    9.3152 O   0  0  0  0  0  0  0  0  0  0  0  0
   29.6157    5.2263   11.4242 C   0  0  0  0  0  0  0  0  0  0  0  0
   24.8228   19.3413    5.9510 O   0  0  0  0  0  0  0  0  0  0  0  0
   23.2924   16.5935    6.0875 O   0  0  0  0  0  0  0  0  0  0  0  0
   27.7966    6.5478   12.1624 C   0  0  0  0  0  0  0  0  0  0  0  0
   29.4785    5.5669   10.0972 C   0  0  0  0  0  0  0  0  0  0  0  0
   28.3967    5.0644   11.9372 C   0  0  1  0  0  0  0  0  0  0  0  0
   24.4556   16.1827   11.6994 F   0  0  0  0  0  0  0  0  0  0  0  0
  1  2  1  6  0  0  0
  1 10  1  0  0  0  0
  1  3  1  0  0  0  0
  3  4  1  6  0  0  0
  3  6  1  0  0  0  0
  5 46  2  0  0  0  0
  6 42  1  1  0  0  0
  6  8  1  0  0  0  0
  7 47  1  0  0  0  0
  8  9  1  0  0  0  0
  8 49  1  1  0  0  0
  9 10  1  0  0  0  0
  9 11  1  1  0  0  0
 11 12  1  0  0  0  0
 13 14  1  6  0  0  0
 13 15  1  0  0  0  0
 13 21  1  0  0  0  0
 14 46  1  0  0  0  0
 15 16  1  0  0  0  0
 16 17  1  6  0  0  0
 16 18  1  0  0  0  0
 18  2  1  1  0  0  0
 18 19  1  0  0  0  0
 19 20  1  6  0  0  0
 19 21  1  0  0  0  0
 21 22  1  1  0  0  0
 23 20  1  6  0  0  0
 23 24  1  0  0  0  0
 23 28  1  0  0  0  0
 24 25  1  1  0  0  0
 24 26  1  0  0  0  0
 26 27  1  0  0  0  0
 26 32  1  1  0  0  0
 27 28  1  0  0  0  0
 27 29  1  6  0  0  0
 29 30  1  0  0  0  0
 31 32  1  6  0  0  0
 31 33  1  0  0  0  0
 31 39  1  0  0  0  0
 33 36  1  0  0  0  0
 33 41  1  1  0  0  0
 34 40  1  0  0  0  0
 35 48  1  0  0  0  0
 36 37  1  0  0  0  0
 36 45  1  1  0  0  0
 37 38  1  0  0  0  0
 37 44  1  6  0  0  0
 38 39  1  0  0  0  0
 38 40  1  1  0  0  0
 43 47  1  0  0  0  0
 46 48  1  0  0  0  0
 48 43  1  6  0  0  0
M  END
>  <CHROM.1>
-161.95158448,38.63746870,-55.85557839,-109.62902680,42.38986594,169.26625858
-160.76225573,46.83646258,-33.70508096,-158.68699078,-67.85934980,43.19003930
125.70504208,26.13546055,12.99211009,9.23697090,1.07928159,-0.97814080,2.44143132

>  <Name>
ligand

>  <RI>
0

>  <Rbt.Current_Directory>
/home/itssahil/PROJECTS/Mol_Feturizer/New_Systems/rnas/4PDQ

>  <Rbt.Executable>
rbdock ($Id: //depot/dev/client3/rdock/2013.1/src/exe/rbdock.cxx#4 $)

>  <Rbt.Library>
libRbt.so (2013.1, Build901 2013/11/27)

>  <Rbt.Parameter_File>
/export/apps/rDock/src/rDock_2013.1_src/data/scripts/dock_solv.prm

>  <Rbt.Receptor>
prm/blind_docking_60.prm

>  <SCORE>
11.0841

>  <SCORE.INTER>
2.62984

>  <SCORE.INTER.CONST>
1

>  <SCORE.INTER.POLAR>
0

>  <SCORE.INTER.ROT>
13

>  <SCORE.INTER.SOLV>
28.149

>  <SCORE.INTER.VDW>
-19.8965

>  <SCORE.INTER.norm>
0.0536703

>  <SCORE.INTRA>
6.64539

>  <SCORE.INTRA.DIHEDRAL>
-19.1314

>  <SCORE.INTRA.DIHEDRAL.0>
34.5115

>  <SCORE.INTRA.POLAR>
0

>  <SCORE.INTRA.POLAR.0>
0

>  <SCORE.INTRA.REPUL>
0.469496

>  <SCORE.INTRA.REPUL.0>
0

>  <SCORE.INTRA.SOLV>
7.03422

>  <SCORE.INTRA.SOLV.lig_0>
-122.812

>  <SCORE.INTRA.VDW>
10.3465

>  <SCORE.INTRA.VDW.0>
-7.46208

>  <SCORE.INTRA.norm>
0.13562

>  <SCORE.RESTR>
1.80883

>  <SCORE.RESTR.CAVITY>
1.80883

>  <SCORE.RESTR.norm>
0.0369149

>  <SCORE.SYSTEM>
0

>  <SCORE.SYSTEM.CONST>
0

>  <SCORE.SYSTEM.DIHEDRAL>
0

>  <SCORE.SYSTEM.SOLV>
0

>  <SCORE.SYSTEM.norm>
0

>  <SCORE.heavy>
49

>  <SCORE.norm>
0.226205

>  <RMSD>
10.524

$$$$
ligand
 OpenBabel11021811513D
libRbt.so/2013.1/901 2013/11/27
 49 52  0  0  0  0  0  0  0  0999 V2000
   27.4762   14.2055    6.0236 C   0  0  2  0  0  0  0  0  0  0  0  0
   27.4333   15.3152    6.8713 O   0  0  0  0  0  0  0  0  0  0  0  0
   26.2855   13.2332    6.3611 C   0  0  2  0  0  0  0  0  0  0  0  0
   24.9706   13.9783    6.1926 N   0  0  0  0  0  0  0  0  0  0  0  0
   25.4949   20.9397   10.3650 O   0  0  0  0  0  0  0  0  0  0  0  0
   26.4370   12.6732    7.7947 C   0  0  2  0  0  0  0  0  0  0  0  0
   22.3818   23.7075    7.3576 N   0  0  0  0  0  0  0  0  0  0  0  0
   27.7805   11.9427    7.9461 C   0  0  2  0  0  0  0  0  0  0  0  0
   29.0074   12.8926    7.6115 C   0  0  2  0  0  0  0  0  0  0  0  0
   28.7875   13.4632    6.2092 O   0  0  0  0  0  0  0  0  0  0  0  0
   30.3608   12.1312    7.7128 C   0  0  0  0  0  0  0  0  0  0  0  0
   31.4832   12.9792    7.9005 N   0  0  0  0  0  0  0  0  0  0  0  0
   25.3527   18.8014    8.3946 C   0  0  2  0  0  0  0  0  0  0  0  0
   24.3435   19.8968    8.4875 N   0  0  0  0  0  0  0  0  0  0  0  0
   25.8549   18.7538    6.8708 C   0  0  0  0  0  0  0  0  0  0  0  0
   26.9468   17.6346    6.6876 C   0  0  2  0  0  0  0  0  0  0  0  0
   27.4005   17.5675    5.2907 N   0  0  0  0  0  0  0  0  0  0  0  0
   26.3706   16.2580    7.0748 C   0  0  2  0  0  0  0  0  0  0  0  0
   25.8615   16.2719    8.5727 C   0  0  2  0  0  0  0  0  0  0  0  0
   25.3403   14.9179    8.8453 O   0  0  0  0  0  0  0  0  0  0  0  0
   24.6991   17.3805    8.7179 C   0  0  1  0  0  0  0  0  0  0  0  0
   24.2595   17.3718   10.0394 O   0  0  0  0  0  0  0  0  0  0  0  0
   25.3548   14.2931    9.9732 C   0  0  1  0  0  0  0  0  0  0  0  0
   24.9951   15.1484   11.2237 C   0  0  2  0  0  0  0  0  0  0  0  0
   26.1755   15.6763   11.7412 O   0  0  0  0  0  0  0  0  0  0  0  0
   24.4601   14.0744   12.0772 C   0  0  1  0  0  0  0  0  0  0  0  0
   23.6387   13.1013   11.1762 C   0  0  2  0  0  0  0  0  0  0  0  0
   24.4712   13.1269   10.0427 O   0  0  0  0  0  0  0  0  0  0  0  0
   22.1504   13.3879   10.9718 C   0  0  0  0  0  0  0  0  0  0  0  0
   22.0507   14.7656   10.6645 O   0  0  0  0  0  0  0  0  0  0  0  0
   25.5200   12.1047   13.0872 C   0  0  2  0  0  0  0  0  0  0  0  0
   25.6428   13.4130   12.7175 O   0  0  0  0  0  0  0  0  0  0  0  0
   26.3855   11.7678   14.2656 C   0  0  1  0  0  0  0  0  0  0  0  0
   27.4567    8.9803   10.4333 N   0  0  0  0  0  0  0  0  0  0  0  0
   22.7193   22.0892   10.7818 O   0  0  0  0  0  0  0  0  0  0  0  0
   26.2332   10.2343   14.6051 C   0  0  2  0  0  0  0  0  0  0  0  0
   26.5770    9.2865   13.4041 C   0  0  1  0  0  0  0  0  0  0  0  0
   25.7258    9.6231   12.2871 C   0  0  1  0  0  0  0  0  0  0  0  0
   25.8536   11.0944   11.9404 O   0  0  0  0  0  0  0  0  0  0  0  0
   26.0710    8.7129   11.0279 C   0  0  0  0  0  0  0  0  0  0  0  0
   27.7383   12.0149   13.9573 N   0  0  0  0  0  0  0  0  0  0  0  0
   25.5846   11.9402    8.0008 O   0  0  0  0  0  0  0  0  0  0  0  0
   23.9947   23.2052    9.2693 C   0  0  0  0  0  0  0  0  0  0  0  0
   27.6708    9.4646   13.1049 O   0  0  0  0  0  0  0  0  0  0  0  0
   25.1339   10.0356   14.8793 O   0  0  0  0  0  0  0  0  0  0  0  0
   24.5529   20.9239    9.5600 C   0  0  0  0  0  0  0  0  0  0  0  0
   23.1317   23.9829    8.5301 C   0  0  0  0  0  0  0  0  0  0  0  0
   23.3901   22.0456    9.5243 C   0  0  1  0  0  0  0  0  0  0  0  0
   27.8281   10.8416    7.0728 F   0  0  0  0  0  0  0  0  0  0  0  0
  1  2  1  1  0  0  0
  1 10  1  0  0  0  0
  1  3  1  0  0  0  0
  3  4  1  1  0  0  0
  3  6  1  0  0  0  0
  5 46  2  0  0  0  0
  6 42  1  6  0  0  0
  6  8  1  0  0  0  0
  7 47  1  0  0  0  0
  8  9  1  0  0  0  0
  8 49  1  6  0  0  0
  9 10  1  0  0  0  0
  9 11  1  6  0  0  0
 11 12  1  0  0  0  0
 13 14  1  6  0  0  0
 13 15  1  0  0  0  0
 13 21  1  0  0  0  0
 14 46  1  0  0  0  0
 15 16  1  0  0  0  0
 16 17  1  6  0  0  0
 16 18  1  0  0  0  0
 18  2  1  1  0  0  0
 18 19  1  0  0  0  0
 19 20  1  6  0  0  0
 19 21  1  0  0  0  0
 21 22  1  1  0  0  0
 23 20  1  6  0  0  0
 23 24  1  0  0  0  0
 23 28  1  0  0  0  0
 24 25  1  1  0  0  0
 24 26  1  0  0  0  0
 26 27  1  0  0  0  0
 26 32  1  6  0  0  0
 27 28  1  0  0  0  0
 27 29  1  6  0  0  0
 29 30  1  0  0  0  0
 31 32  1  6  0  0  0
 31 33  1  0  0  0  0
 31 39  1  0  0  0  0
 33 36  1  0  0  0  0
 33 41  1  6  0  0  0
 34 40  1  0  0  0  0
 35 48  1  0  0  0  0
 36 37  1  0  0  0  0
 36 45  1  6  0  0  0
 37 38  1  0  0  0  0
 37 44  1  6  0  0  0
 38 39  1  0  0  0  0
 38 40  1  6  0  0  0
 43 47  1  0  0  0  0
 46 48  1  0  0  0  0
 48 43  1  1  0  0  0
M  END
>  <CHROM.1>
-57.03439117,-119.93708218,-158.69924861,-127.84671793,148.20804551,41.96335302
-153.15651555,46.97406412,-150.66335260,-67.06251637,-49.94415171,-93.29811705
-59.00675668,25.81410227,14.81189031,9.67404092,-1.99409210,-0.97254356,2.51261935

>  <Name>
ligand

>  <RI>
0

>  <Rbt.Current_Directory>
/home/itssahil/PROJECTS/Mol_Feturizer/New_Systems/rnas/4PDQ

>  <Rbt.Executable>
rbdock ($Id: //depot/dev/client3/rdock/2013.1/src/exe/rbdock.cxx#4 $)

>  <Rbt.Library>
libRbt.so (2013.1, Build901 2013/11/27)

>  <Rbt.Parameter_File>
/export/apps/rDock/src/rDock_2013.1_src/data/scripts/dock_solv.prm

>  <Rbt.Receptor>
prm/blind_docking_40.prm

>  <SCORE>
7.19105

>  <SCORE.INTER>
-0.0181122

>  <SCORE.INTER.CONST>
1

>  <SCORE.INTER.POLAR>
0

>  <SCORE.INTER.ROT>
13

>  <SCORE.INTER.SOLV>
27.6347

>  <SCORE.INTER.VDW>
-21.4903

>  <SCORE.INTER.norm>
-0.000369636

>  <SCORE.INTRA>
1.38445

>  <SCORE.INTRA.DIHEDRAL>
-6.07572

>  <SCORE.INTRA.DIHEDRAL.0>
34.5115

>  <SCORE.INTRA.POLAR>
0

>  <SCORE.INTRA.POLAR.0>
0

>  <SCORE.INTRA.REPUL>
0

>  <SCORE.INTRA.REPUL.0>
0

>  <SCORE.INTRA.SOLV>
3.5235

>  <SCORE.INTRA.SOLV.lig_0>
-122.812

>  <SCORE.INTRA.VDW>
2.66056

>  <SCORE.INTRA.VDW.0>
-7.46208

>  <SCORE.INTRA.norm>
0.0282541

>  <SCORE.RESTR>
5.82471

>  <SCORE.RESTR.CAVITY>
5.82471

>  <SCORE.RESTR.norm>
0.118872

>  <SCORE.SYSTEM>
0

>  <SCORE.SYSTEM.CONST>
0

>  <SCORE.SYSTEM.DIHEDRAL>
0

>  <SCORE.SYSTEM.SOLV>
0

>  <SCORE.SYSTEM.norm>
0

>  <SCORE.heavy>
49

>  <SCORE.norm>
0.146756

>  <RMSD>
10.544

$$$$
ligand
 OpenBabel11021811513D
libRbt.so/2013.1/901 2013/11/27
 49 52  0  0  0  0  0  0  0  0999 V2000
   29.6567    9.3265    6.2100 C   0  0  2  0  0  0  0  0  0  0  0  0
   30.3112    9.5101    4.9893 O   0  0  0  0  0  0  0  0  0  0  0  0
   30.7133    9.2653    7.3749 C   0  0  2  0  0  0  0  0  0  0  0  0
   31.5125   10.5589    7.3914 N   0  0  0  0  0  0  0  0  0  0  0  0
   24.6620   10.3885    1.4914 O   0  0  0  0  0  0  0  0  0  0  0  0
   31.6345    8.0351    7.2026 C   0  0  2  0  0  0  0  0  0  0  0  0
   22.4092    9.8851   -2.8137 N   0  0  0  0  0  0  0  0  0  0  0  0
   30.8033    6.7429    7.1689 C   0  0  2  0  0  0  0  0  0  0  0  0
   29.7235    6.7685    6.0057 C   0  0  2  0  0  0  0  0  0  0  0  0
   28.8724    8.0269    6.1860 O   0  0  0  0  0  0  0  0  0  0  0  0
   28.8490    5.4813    6.0126 C   0  0  0  0  0  0  0  0  0  0  0  0
   27.9834    5.3822    7.1329 N   0  0  0  0  0  0  0  0  0  0  0  0
   27.3457    9.3132    1.8318 C   0  0  2  0  0  0  0  0  0  0  0  0
   26.7093    9.5175    0.4975 N   0  0  0  0  0  0  0  0  0  0  0  0
   27.9727   10.7232    2.2736 C   0  0  0  0  0  0  0  0  0  0  0  0
   28.6474   10.6037    3.6910 C   0  0  2  0  0  0  0  0  0  0  0  0
   29.2435   11.8846    4.0983 N   0  0  0  0  0  0  0  0  0  0  0  0
   29.7623    9.5393    3.6636 C   0  0  2  0  0  0  0  0  0  0  0  0
   29.1776    8.1356    3.2269 C   0  0  2  0  0  0  0  0  0  0  0  0
   30.3131    7.1922    3.2392 O   0  0  0  0  0  0  0  0  0  0  0  0
   28.5515    8.2695    1.7465 C   0  0  1  0  0  0  0  0  0  0  0  0
   28.0500    7.0237    1.3777 O   0  0  0  0  0  0  0  0  0  0  0  0
   31.3979    7.2740    2.5469 C   0  0  1  0  0  0  0  0  0  0  0  0
   32.2581    5.9776    2.4839 C   0  0  2  0  0  0  0  0  0  0  0  0
   33.1742    6.0147    3.5324 O   0  0  0  0  0  0  0  0  0  0  0  0
   32.9100    6.2102    1.1843 C   0  0  1  0  0  0  0  0  0  0  0  0
   31.8597    6.8433    0.2201 C   0  0  2  0  0  0  0  0  0  0  0  0
   31.2087    7.6735    1.1504 O   0  0  0  0  0  0  0  0  0  0  0  0
   30.9947    5.9055   -0.6232 C   0  0  0  0  0  0  0  0  0  0  0  0
   31.8719    5.2677   -1.5322 O   0  0  0  0  0  0  0  0  0  0  0  0
   34.9291    7.3764    0.4183 C   0  0  2  0  0  0  0  0  0  0  0  0
   34.0738    7.1164    1.4500 O   0  0  0  0  0  0  0  0  0  0  0  0
   35.6144    6.1353   -0.0728 C   0  0  1  0  0  0  0  0  0  0  0  0
   38.9144    9.4173    1.3281 N   0  0  0  0  0  0  0  0  0  0  0  0
   25.8182   10.7410   -1.8626 O   0  0  0  0  0  0  0  0  0  0  0  0
   36.6221    6.5157   -1.2261 C   0  0  2  0  0  0  0  0  0  0  0  0
   37.6912    7.5814   -0.8018 C   0  0  1  0  0  0  0  0  0  0  0  0
   37.0085    8.7684   -0.3428 C   0  0  1  0  0  0  0  0  0  0  0  0
   36.0321    8.4293    0.7675 O   0  0  0  0  0  0  0  0  0  0  0  0
   38.0570    9.8639    0.1405 C   0  0  0  0  0  0  0  0  0  0  0  0
   36.3507    5.5443    0.9736 N   0  0  0  0  0  0  0  0  0  0  0  0
   32.3647    7.9901    8.0807 O   0  0  0  0  0  0  0  0  0  0  0  0
   24.3743    9.0439   -1.4213 C   0  0  0  0  0  0  0  0  0  0  0  0
   38.3083    7.1493    0.0642 O   0  0  0  0  0  0  0  0  0  0  0  0
   36.0195    6.9772   -2.0904 O   0  0  0  0  0  0  0  0  0  0  0  0
   25.3181   10.0771    0.4873 C   0  0  0  0  0  0  0  0  0  0  0  0
   23.6252    9.1974   -2.5664 C   0  0  0  0  0  0  0  0  0  0  0  0
   24.7738   10.2514   -1.0243 C   0  0  1  0  0  0  0  0  0  0  0  0
   30.1272    6.5763    8.3905 F   0  0  0  0  0  0  0  0  0  0  0  0
  1  2  1  6  0  0  0
  1 10  1  0  0  0  0
  1  3  1  0  0  0  0
  3  4  1  6  0  0  0
  3  6  1  0  0  0  0
  5 46  2  0  0  0  0
  6 42  1  1  0  0  0
  6  8  1  0  0  0  0
  7 47  1  0  0  0  0
  8  9  1  0  0  0  0
  8 49  1  1  0  0  0
  9 10  1  0  0  0  0
  9 11  1  1  0  0  0
 11 12  1  0  0  0  0
 13 14  1  6  0  0  0
 13 15  1  0  0  0  0
 13 21  1  0  0  0  0
 14 46  1  0  0  0  0
 15 16  1  0  0  0  0
 16 17  1  6  0  0  0
 16 18  1  0  0  0  0
 18  2  1  1  0  0  0
 18 19  1  0  0  0  0
 19 20  1  6  0  0  0
 19 21  1  0  0  0  0
 21 22  1  1  0  0  0
 23 20  1  6  0  0  0
 23 24  1  0  0  0  0
 23 28  1  0  0  0  0
 24 25  1  1  0  0  0
 24 26  1  0  0  0  0
 26 27  1  0  0  0  0
 26 32  1  1  0  0  0
 27 28  1  0  0  0  0
 27 29  1  1  0  0  0
 29 30  1  0  0  0  0
 31 32  1  1  0  0  0
 31 33  1  0  0  0  0
 31 39  1  0  0  0  0
 33 36  1  0  0  0  0
 33 41  1  1  0  0  0
 34 40  1  0  0  0  0
 35 48  1  0  0  0  0
 36 37  1  0  0  0  0
 36 45  1  6  0  0  0
 37 38  1  0  0  0  0
 37 44  1  1  0  0  0
 38 39  1  0  0  0  0
 38 40  1  1  0  0  0
 43 47  1  0  0  0  0
 46 48  1  0  0  0  0
 48 43  1  6  0  0  0
M  END
>  <CHROM.1>
175.67325068,54.21109134,68.47291107,-83.53833587,-59.60508368,-165.17100935
173.44258611,-66.62905130,-62.41141190,-62.20294859,-61.68974508,-74.40982097
138.81613165,30.92588234,8.08858613,2.26419078,-3.07803115,0.19234661,-1.51012600

>  <Name>
ligand

>  <RI>
0

>  <Rbt.Current_Directory>
/home/itssahil/PROJECTS/Mol_Feturizer/New_Systems/rnas/4PDQ

>  <Rbt.Executable>
rbdock ($Id: //depot/dev/client3/rdock/2013.1/src/exe/rbdock.cxx#4 $)

>  <Rbt.Library>
libRbt.so (2013.1, Build901 2013/11/27)

>  <Rbt.Parameter_File>
/export/apps/rDock/src/rDock_2013.1_src/data/scripts/dock_solv.prm

>  <Rbt.Receptor>
prm/pocket_docking_5.prm

>  <SCORE>
-16.1005

>  <SCORE.INTER>
-3.55757

>  <SCORE.INTER.CONST>
1

>  <SCORE.INTER.POLAR>
0

>  <SCORE.INTER.ROT>
13

>  <SCORE.INTER.SOLV>
22.6361

>  <SCORE.INTER.VDW>
-22.1838

>  <SCORE.INTER.norm>
-0.0726035

>  <SCORE.INTRA>
-12.543

>  <SCORE.INTRA.DIHEDRAL>
-30.163

>  <SCORE.INTRA.DIHEDRAL.0>
34.5115

>  <SCORE.INTRA.POLAR>
0

>  <SCORE.INTRA.POLAR.0>
0

>  <SCORE.INTRA.REPUL>
0

>  <SCORE.INTRA.REPUL.0>
0

>  <SCORE.INTRA.SOLV>
0.349297

>  <SCORE.INTRA.SOLV.lig_0>
-122.812

>  <SCORE.INTRA.VDW>
2.3639

>  <SCORE.INTRA.VDW.0>
-7.46208

>  <SCORE.INTRA.norm>
-0.255979

>  <SCORE.RESTR>
0

>  <SCORE.RESTR.CAVITY>
0

>  <SCORE.RESTR.norm>
0

>  <SCORE.SYSTEM>
0

>  <SCORE.SYSTEM.CONST>
0

>  <SCORE.SYSTEM.DIHEDRAL>
0

>  <SCORE.SYSTEM.SOLV>
0

>  <SCORE.SYSTEM.norm>
0

>  <SCORE.heavy>
49

>  <SCORE.norm>
-0.328582

>  <RMSD>
10.544

$$$$
ligand
 OpenBabel11021811513D
libRbt.so/2013.1/901 2013/11/27
 49 52  0  0  0  0  0  0  0  0999 V2000
   27.1262   12.6986    8.8567 C   0  0  2  0  0  0  0  0  0  0  0  0
   27.6245   11.6749    9.6665 O   0  0  0  0  0  0  0  0  0  0  0  0
   27.9011   14.0358    9.1544 C   0  0  2  0  0  0  0  0  0  0  0  0
   29.3830   13.8231    8.8879 N   0  0  0  0  0  0  0  0  0  0  0  0
   29.7378    5.4509   10.7191 O   0  0  0  0  0  0  0  0  0  0  0  0
   27.6492   14.4916   10.6106 C   0  0  2  0  0  0  0  0  0  0  0  0
   24.8641    3.9554   12.1762 N   0  0  0  0  0  0  0  0  0  0  0  0
   26.1449   14.6804   10.8611 C   0  0  2  0  0  0  0  0  0  0  0  0
   25.3285   13.3508   10.5690 C   0  0  2  0  0  0  0  0  0  0  0  0
   25.6498   12.9099    9.1398 O   0  0  0  0  0  0  0  0  0  0  0  0
   23.8005   13.5652   10.7711 C   0  0  0  0  0  0  0  0  0  0  0  0
   23.4512   14.0121   12.0720 N   0  0  0  0  0  0  0  0  0  0  0  0
   27.8793    7.3484    9.5275 C   0  0  2  0  0  0  0  0  0  0  0  0
   27.5361    5.9192    9.7857 N   0  0  0  0  0  0  0  0  0  0  0  0
   27.7902    8.1143   10.9353 C   0  0  0  0  0  0  0  0  0  0  0  0
   28.1635    9.6333   10.7581 C   0  0  2  0  0  0  0  0  0  0  0  0
   28.0659   10.3506   12.0379 N   0  0  0  0  0  0  0  0  0  0  0  0
   27.2056   10.3050    9.7540 C   0  0  2  0  0  0  0  0  0  0  0  0
   27.2661    9.5701    8.3543 C   0  0  2  0  0  0  0  0  0  0  0  0
   26.3273   10.2877    7.4692 O   0  0  0  0  0  0  0  0  0  0  0  0
   26.8165    8.0339    8.5522 C   0  0  1  0  0  0  0  0  0  0  0  0
   26.8687    7.4072    7.3095 O   0  0  0  0  0  0  0  0  0  0  0  0
   26.1472   10.0927    6.2073 C   0  0  1  0  0  0  0  0  0  0  0  0
   24.9726   10.8856    5.5623 C   0  0  2  0  0  0  0  0  0  0  0  0
   23.8272   10.0964    5.6331 O   0  0  0  0  0  0  0  0  0  0  0  0
   25.4922   10.9671    4.1871 C   0  0  1  0  0  0  0  0  0  0  0  0
   27.0312   11.2106    4.2627 C   0  0  2  0  0  0  0  0  0  0  0  0
   27.3107   10.3850    5.3666 O   0  0  0  0  0  0  0  0  0  0  0  0
   27.5333   12.6544    4.3096 C   0  0  0  0  0  0  0  0  0  0  0  0
   28.9441   12.5808    4.3925 O   0  0  0  0  0  0  0  0  0  0  0  0
   24.8273    9.6954    2.1961 C   0  0  2  0  0  0  0  0  0  0  0  0
   25.1422    9.6693    3.5241 O   0  0  0  0  0  0  0  0  0  0  0  0
   24.5453    8.3243    1.6561 C   0  0  1  0  0  0  0  0  0  0  0  0
   26.4577   11.5735   -2.3821 N   0  0  0  0  0  0  0  0  0  0  0  0
   29.1884    2.6696   10.7659 O   0  0  0  0  0  0  0  0  0  0  0  0
   24.2401    8.4230    0.1111 C   0  0  2  0  0  0  0  0  0  0  0  0
   25.3906    9.0945   -0.7161 C   0  0  1  0  0  0  0  0  0  0  0  0
   25.6367   10.4145   -0.1848 C   0  0  1  0  0  0  0  0  0  0  0  0
   25.9327   10.3472    1.3015 O   0  0  0  0  0  0  0  0  0  0  0  0
   26.8300   11.1183   -0.9682 C   0  0  0  0  0  0  0  0  0  0  0  0
   25.6734    7.4968    1.8268 N   0  0  0  0  0  0  0  0  0  0  0  0
   28.1881   15.4835   10.7893 O   0  0  0  0  0  0  0  0  0  0  0  0
   27.3496    3.5743   11.7458 C   0  0  0  0  0  0  0  0  0  0  0  0
   26.3404    8.4616   -0.5940 O   0  0  0  0  0  0  0  0  0  0  0  0
   23.3058    9.0794   -0.0281 O   0  0  0  0  0  0  0  0  0  0  0  0
   28.6036    5.0652   10.4021 C   0  0  0  0  0  0  0  0  0  0  0  0
   26.0368    3.7954   11.3940 C   0  0  0  0  0  0  0  0  0  0  0  0
   28.0781    3.5541   10.6304 C   0  0  1  0  0  0  0  0  0  0  0  0
   25.6438   15.6945   10.0257 F   0  0  0  0  0  0  0  0  0  0  0  0
  1  2  1  1  0  0  0
  1 10  1  0  0  0  0
  1  3  1  0  0  0  0
  3  4  1  1  0  0  0
  3  6  1  0  0  0  0
  5 46  2  0  0  0  0
  6 42  1  6  0  0  0
  6  8  1  0  0  0  0
  7 47  1  0  0  0  0
  8  9  1  0  0  0  0
  8 49  1  6  0  0  0
  9 10  1  0  0  0  0
  9 11  1  6  0  0  0
 11 12  1  0  0  0  0
 13 14  1  1  0  0  0
 13 15  1  0  0  0  0
 13 21  1  0  0  0  0
 14 46  1  0  0  0  0
 15 16  1  0  0  0  0
 16 17  1  1  0  0  0
 16 18  1  0  0  0  0
 18  2  1  6  0  0  0
 18 19  1  0  0  0  0
 19 20  1  6  0  0  0
 19 21  1  0  0  0  0
 21 22  1  6  0  0  0
 23 20  1  1  0  0  0
 23 24  1  0  0  0  0
 23 28  1  0  0  0  0
 24 25  1  6  0  0  0
 24 26  1  0  0  0  0
 26 27  1  0  0  0  0
 26 32  1  1  0  0  0
 27 28  1  0  0  0  0
 27 29  1  1  0  0  0
 29 30  1  0  0  0  0
 31 32  1  1  0  0  0
 31 33  1  0  0  0  0
 31 39  1  0  0  0  0
 33 36  1  0  0  0  0
 33 41  1  6  0  0  0
 34 40  1  0  0  0  0
 35 48  1  0  0  0  0
 36 37  1  0  0  0  0
 36 45  1  1  0  0  0
 37 38  1  0  0  0  0
 37 44  1  1  0  0  0
 38 39  1  0  0  0  0
 38 40  1  6  0  0  0
 43 47  1  0  0  0  0
 46 48  1  0  0  0  0
 48 43  1  1  0  0  0
M  END
>  <CHROM.1>
178.69476835,177.06636741,-57.80261991,-77.69618255,173.75421786,173.21454890
145.17700723,179.22399003,178.04246178,72.96108814,-177.42379798,-148.29344902
-20.97241155,26.55579939,9.91505595,6.91654413,0.37063390,-1.40157787,0.48780908

>  <Name>
ligand

>  <RI>
0

>  <Rbt.Current_Directory>
/home/itssahil/PROJECTS/Mol_Feturizer/New_Systems/rnas/4PDQ

>  <Rbt.Executable>
rbdock ($Id: //depot/dev/client3/rdock/2013.1/src/exe/rbdock.cxx#4 $)

>  <Rbt.Library>
libRbt.so (2013.1, Build901 2013/11/27)

>  <Rbt.Parameter_File>
/export/apps/rDock/src/rDock_2013.1_src/data/scripts/dock_solv.prm

>  <Rbt.Receptor>
prm/pocket_docking_8.prm

>  <SCORE>
-18.7812

>  <SCORE.INTER>
-5.8281

>  <SCORE.INTER.CONST>
1

>  <SCORE.INTER.POLAR>
0

>  <SCORE.INTER.ROT>
13

>  <SCORE.INTER.SOLV>
29.6469

>  <SCORE.INTER.VDW>
-26.0344

>  <SCORE.INTER.norm>
-0.118941

>  <SCORE.INTRA>
-12.9531

>  <SCORE.INTRA.DIHEDRAL>
-24.5621

>  <SCORE.INTRA.DIHEDRAL.0>
34.5115

>  <SCORE.INTRA.POLAR>
0

>  <SCORE.INTRA.POLAR.0>
0

>  <SCORE.INTRA.REPUL>
0

>  <SCORE.INTRA.REPUL.0>
0

>  <SCORE.INTRA.SOLV>
-4.77118

>  <SCORE.INTRA.SOLV.lig_0>
-122.812

>  <SCORE.INTRA.VDW>
1.71354

>  <SCORE.INTRA.VDW.0>
-7.46208

>  <SCORE.INTRA.norm>
-0.264349

>  <SCORE.RESTR>
0

>  <SCORE.RESTR.CAVITY>
0

>  <SCORE.RESTR.norm>
0

>  <SCORE.SYSTEM>
0

>  <SCORE.SYSTEM.CONST>
0

>  <SCORE.SYSTEM.DIHEDRAL>
0

>  <SCORE.SYSTEM.SOLV>
0

>  <SCORE.SYSTEM.norm>
0

>  <SCORE.heavy>
49

>  <SCORE.norm>
-0.38329

>  <RMSD>
10.548

$$$$
ligand
 OpenBabel11021811513D
libRbt.so/2013.1/901 2013/11/27
 49 52  0  0  0  0  0  0  0  0999 V2000
   24.2137   14.1331   10.9668 C   0  0  2  0  0  0  0  0  0  0  0  0
   24.9791   13.5538    9.9516 O   0  0  0  0  0  0  0  0  0  0  0  0
   23.4634   15.3993   10.4091 C   0  0  2  0  0  0  0  0  0  0  0  0
   22.5746   14.9810    9.2483 N   0  0  0  0  0  0  0  0  0  0  0  0
   27.8161    8.3709   13.3313 O   0  0  0  0  0  0  0  0  0  0  0  0
   24.4804   16.4823    9.9794 C   0  0  2  0  0  0  0  0  0  0  0  0
   30.2252    4.2673   11.9519 N   0  0  0  0  0  0  0  0  0  0  0  0
   25.3792   16.8739   11.1627 C   0  0  2  0  0  0  0  0  0  0  0  0
   26.1524   15.6201   11.7541 C   0  0  2  0  0  0  0  0  0  0  0  0
   25.1125   14.5574   12.1143 O   0  0  0  0  0  0  0  0  0  0  0  0
   27.0173   16.0141   12.9863 C   0  0  0  0  0  0  0  0  0  0  0  0
   27.9704   17.0303   12.7165 N   0  0  0  0  0  0  0  0  0  0  0  0
   26.1772    9.5976   11.2616 C   0  0  2  0  0  0  0  0  0  0  0  0
   26.6697    8.1908   11.1886 N   0  0  0  0  0  0  0  0  0  0  0  0
   25.0876    9.7746   10.0964 C   0  0  0  0  0  0  0  0  0  0  0  0
   24.4943   11.2326   10.1167 C   0  0  2  0  0  0  0  0  0  0  0  0
   23.5090   11.4135    9.0405 N   0  0  0  0  0  0  0  0  0  0  0  0
   25.6186   12.2693    9.9212 C   0  0  2  0  0  0  0  0  0  0  0  0
   26.7137   12.1191   11.0531 C   0  0  2  0  0  0  0  0  0  0  0  0
   27.7329   13.1523   10.7828 O   0  0  0  0  0  0  0  0  0  0  0  0
   27.3512   10.6399   10.9685 C   0  0  1  0  0  0  0  0  0  0  0  0
   28.3168   10.5304   11.9662 O   0  0  0  0  0  0  0  0  0  0  0  0
   28.0029   13.6976    9.6459 C   0  0  1  0  0  0  0  0  0  0  0  0
   28.7961   15.0360    9.7104 C   0  0  2  0  0  0  0  0  0  0  0  0
   27.8774   16.0819    9.7555 O   0  0  0  0  0  0  0  0  0  0  0  0
   29.4658   14.9571    8.4015 C   0  0  1  0  0  0  0  0  0  0  0  0
   29.8889   13.4751    8.1606 C   0  0  2  0  0  0  0  0  0  0  0  0
   28.7598   12.8508    8.7209 O   0  0  0  0  0  0  0  0  0  0  0  0
   31.2661   13.0274    8.6523 C   0  0  0  0  0  0  0  0  0  0  0  0
   31.2978   11.6193    8.5139 O   0  0  0  0  0  0  0  0  0  0  0  0
   27.3161   14.7476    7.2360 C   0  0  2  0  0  0  0  0  0  0  0  0
   28.4767   15.4498    7.3890 O   0  0  0  0  0  0  0  0  0  0  0  0
   27.4670   13.6125    6.2666 C   0  0  1  0  0  0  0  0  0  0  0  0
   23.4670   17.1089    7.0722 N   0  0  0  0  0  0  0  0  0  0  0  0
   26.8007    5.3576   11.8807 O   0  0  0  0  0  0  0  0  0  0  0  0
   26.0799   12.8789    6.0999 C   0  0  2  0  0  0  0  0  0  0  0  0
   24.9193   13.8251    5.6347 C   0  0  1  0  0  0  0  0  0  0  0  0
   24.7870   14.9025    6.5872 C   0  0  1  0  0  0  0  0  0  0  0  0
   26.1090   15.6247    6.7661 O   0  0  0  0  0  0  0  0  0  0  0  0
   23.6466   15.9145    6.1308 C   0  0  0  0  0  0  0  0  0  0  0  0
   27.8558   14.1042    5.0043 N   0  0  0  0  0  0  0  0  0  0  0  0
   23.9116   17.4051    9.6171 O   0  0  0  0  0  0  0  0  0  0  0  0
   28.7614    6.1552   11.0565 C   0  0  0  0  0  0  0  0  0  0  0  0
   25.1995   14.2652    4.6123 O   0  0  0  0  0  0  0  0  0  0  0  0
   25.7724   12.4571    7.1249 O   0  0  0  0  0  0  0  0  0  0  0  0
   27.5081    7.7046   12.3329 C   0  0  0  0  0  0  0  0  0  0  0  0
   29.3929    4.9323   11.0149 C   0  0  0  0  0  0  0  0  0  0  0  0
   27.9518    6.1661   12.1147 C   0  0  1  0  0  0  0  0  0  0  0  0
   24.6004   17.4333   12.1912 F   0  0  0  0  0  0  0  0  0  0  0  0
  1  2  1  6  0  0  0
  1 10  1  0  0  0  0
  1  3  1  0  0  0  0
  3  4  1  6  0  0  0
  3  6  1  0  0  0  0
  5 46  2  0  0  0  0
  6 42  1  1  0  0  0
  6  8  1  0  0  0  0
  7 47  1  0  0  0  0
  8  9  1  0  0  0  0
  8 49  1  1  0  0  0
  9 10  1  0  0  0  0
  9 11  1  1  0  0  0
 11 12  1  0  0  0  0
 13 14  1  6  0  0  0
 13 15  1  0  0  0  0
 13 21  1  0  0  0  0
 14 46  1  0  0  0  0
 15 16  1  0  0  0  0
 16 17  1  6  0  0  0
 16 18  1  0  0  0  0
 18  2  1  1  0  0  0
 18 19  1  0  0  0  0
 19 20  1  6  0  0  0
 19 21  1  0  0  0  0
 21 22  1  1  0  0  0
 23 20  1  1  0  0  0
 23 24  1  0  0  0  0
 23 28  1  0  0  0  0
 24 25  1  6  0  0  0
 24 26  1  0  0  0  0
 26 27  1  0  0  0  0
 26 32  1  6  0  0  0
 27 28  1  0  0  0  0
 27 29  1  1  0  0  0
 29 30  1  0  0  0  0
 31 32  1  6  0  0  0
 31 33  1  0  0  0  0
 31 39  1  0  0  0  0
 33 36  1  0  0  0  0
 33 41  1  6  0  0  0
 34 40  1  0  0  0  0
 35 48  1  0  0  0  0
 36 37  1  0  0  0  0
 36 45  1  1  0  0  0
 37 38  1  0  0  0  0
 37 44  1  6  0  0  0
 38 39  1  0  0  0  0
 38 40  1  6  0  0  0
 43 47  1  0  0  0  0
 46 48  1  0  0  0  0
 48 43  1  6  0  0  0
M  END
>  <CHROM.1>
-167.11228794,58.88064768,-57.52791798,-168.94952740,-24.97861317,162.07933026
-62.47854373,170.37844728,-86.18794085,-178.52960270,-58.54654967,-73.76223680
125.01336370,26.66526564,12.83268537,9.61711246,2.17529492,1.02055994,-0.85418844

>  <Name>
ligand

>  <RI>
0

>  <Rbt.Current_Directory>
/home/itssahil/PROJECTS/Mol_Feturizer/New_Systems/rnas/4PDQ

>  <Rbt.Executable>
rbdock ($Id: //depot/dev/client3/rdock/2013.1/src/exe/rbdock.cxx#4 $)

>  <Rbt.Library>
libRbt.so (2013.1, Build901 2013/11/27)

>  <Rbt.Parameter_File>
/export/apps/rDock/src/rDock_2013.1_src/data/scripts/dock_solv.prm

>  <Rbt.Receptor>
prm/blind_docking_60.prm

>  <SCORE>
12.5662

>  <SCORE.INTER>
14.9511

>  <SCORE.INTER.CONST>
1

>  <SCORE.INTER.POLAR>
0

>  <SCORE.INTER.ROT>
13

>  <SCORE.INTER.SOLV>
29.3898

>  <SCORE.INTER.VDW>
-12.0959

>  <SCORE.INTER.norm>
0.305124

>  <SCORE.INTRA>
-3.63528

>  <SCORE.INTRA.DIHEDRAL>
-22.7926

>  <SCORE.INTRA.DIHEDRAL.0>
34.5115

>  <SCORE.INTRA.POLAR>
0

>  <SCORE.INTRA.POLAR.0>
0

>  <SCORE.INTRA.REPUL>
0.0713098

>  <SCORE.INTRA.REPUL.0>
0

>  <SCORE.INTRA.SOLV>
10.3267

>  <SCORE.INTRA.SOLV.lig_0>
-122.812

>  <SCORE.INTRA.VDW>
2.24115

>  <SCORE.INTRA.VDW.0>
-7.46208

>  <SCORE.INTRA.norm>
-0.0741893

>  <SCORE.RESTR>
1.25042

>  <SCORE.RESTR.CAVITY>
1.25042

>  <SCORE.RESTR.norm>
0.0255187

>  <SCORE.SYSTEM>
0

>  <SCORE.SYSTEM.CONST>
0

>  <SCORE.SYSTEM.DIHEDRAL>
0

>  <SCORE.SYSTEM.SOLV>
0

>  <SCORE.SYSTEM.norm>
0

>  <SCORE.heavy>
49

>  <SCORE.norm>
0.256453

>  <RMSD>
10.559

$$$$
ligand
 OpenBabel11021811513D
libRbt.so/2013.1/901 2013/11/27
 49 52  0  0  0  0  0  0  0  0999 V2000
   21.7715   17.7835    8.1877 C   0  0  2  0  0  0  0  0  0  0  0  0
   22.1230   16.5454    8.7314 O   0  0  0  0  0  0  0  0  0  0  0  0
   21.3936   17.6087    6.6699 C   0  0  2  0  0  0  0  0  0  0  0  0
   20.2348   16.6309    6.5541 N   0  0  0  0  0  0  0  0  0  0  0  0
   25.9677   18.6801   13.3086 O   0  0  0  0  0  0  0  0  0  0  0  0
   22.6209   17.1277    5.8611 C   0  0  2  0  0  0  0  0  0  0  0  0
   28.6273   15.5503   16.8078 N   0  0  0  0  0  0  0  0  0  0  0  0
   23.7842   18.1209    6.0095 C   0  0  2  0  0  0  0  0  0  0  0  0
   24.1930   18.3248    7.5297 C   0  0  2  0  0  0  0  0  0  0  0  0
   22.9394   18.7472    8.2980 O   0  0  0  0  0  0  0  0  0  0  0  0
   25.3337   19.3731    7.6766 C   0  0  0  0  0  0  0  0  0  0  0  0
   26.5774   18.9458    7.1432 N   0  0  0  0  0  0  0  0  0  0  0  0
   25.8115   16.9453   10.9760 C   0  0  2  0  0  0  0  0  0  0  0  0
   26.8091   16.7577   12.0699 N   0  0  0  0  0  0  0  0  0  0  0  0
   24.3964   17.2355   11.6760 C   0  0  0  0  0  0  0  0  0  0  0  0
   23.2839   17.4715   10.5874 C   0  0  2  0  0  0  0  0  0  0  0  0
   21.9781   17.7185   11.2163 N   0  0  0  0  0  0  0  0  0  0  0  0
   23.1554   16.2330    9.6782 C   0  0  2  0  0  0  0  0  0  0  0  0
   24.5366   15.9163    8.9749 C   0  0  2  0  0  0  0  0  0  0  0  0
   24.3074   14.7288    8.1283 O   0  0  0  0  0  0  0  0  0  0  0  0
   25.6423   15.6144   10.1097 C   0  0  1  0  0  0  0  0  0  0  0  0
   26.8471   15.3306    9.4712 O   0  0  0  0  0  0  0  0  0  0  0  0
   24.3828   13.4927    8.4881 C   0  0  1  0  0  0  0  0  0  0  0  0
   23.0456   12.6958    8.4507 C   0  0  2  0  0  0  0  0  0  0  0  0
   22.4422   12.8039    9.7014 O   0  0  0  0  0  0  0  0  0  0  0  0
   23.5990   11.3495    8.2289 C   0  0  1  0  0  0  0  0  0  0  0  0
   24.7967   11.4737    7.2371 C   0  0  2  0  0  0  0  0  0  0  0  0
   25.3298   12.6835    7.7174 O   0  0  0  0  0  0  0  0  0  0  0  0
   24.5086   11.3689    5.7388 C   0  0  0  0  0  0  0  0  0  0  0  0
   25.6045   11.9764    5.0811 O   0  0  0  0  0  0  0  0  0  0  0  0
   25.2571   11.1580   10.0281 C   0  0  2  0  0  0  0  0  0  0  0  0
   24.0111   10.8337    9.5743 O   0  0  0  0  0  0  0  0  0  0  0  0
   26.3090   10.2256    9.5036 C   0  0  1  0  0  0  0  0  0  0  0  0
   28.0557   11.8360   14.3914 N   0  0  0  0  0  0  0  0  0  0  0  0
   27.5424   17.9865   15.5595 O   0  0  0  0  0  0  0  0  0  0  0  0
   27.7111   10.6262   10.1066 C   0  0  2  0  0  0  0  0  0  0  0  0
   27.7425   10.6359   11.6744 C   0  0  1  0  0  0  0  0  0  0  0  0
   26.7296   11.5463   12.1546 C   0  0  1  0  0  0  0  0  0  0  0  0
   25.3702   11.1825   11.5882 O   0  0  0  0  0  0  0  0  0  0  0  0
   26.6958   11.5551   13.7458 C   0  0  0  0  0  0  0  0  0  0  0  0
   26.0240    8.9037    9.9009 N   0  0  0  0  0  0  0  0  0  0  0  0
   22.3326   17.0478    4.7580 O   0  0  0  0  0  0  0  0  0  0  0  0
   27.9329   16.0678   14.4081 C   0  0  0  0  0  0  0  0  0  0  0  0
   27.4984    9.5781   12.0472 O   0  0  0  0  0  0  0  0  0  0  0  0
   27.9555   11.6968    9.7641 O   0  0  0  0  0  0  0  0  0  0  0  0
   26.7656   17.7377   13.2041 C   0  0  0  0  0  0  0  0  0  0  0  0
   28.8140   15.7403   15.4143 C   0  0  0  0  0  0  0  0  0  0  0  0
   27.8934   17.3960   14.3099 C   0  0  1  0  0  0  0  0  0  0  0  0
   23.4159   19.3718    5.4835 F   0  0  0  0  0  0  0  0  0  0  0  0
  1  2  1  6  0  0  0
  1 10  1  0  0  0  0
  1  3  1  0  0  0  0
  3  4  1  1  0  0  0
  3  6  1  0  0  0  0
  5 46  2  0  0  0  0
  6 42  1  6  0  0  0
  6  8  1  0  0  0  0
  7 47  1  0  0  0  0
  8  9  1  0  0  0  0
  8 49  1  1  0  0  0
  9 10  1  0  0  0  0
  9 11  1  6  0  0  0
 11 12  1  0  0  0  0
 13 14  1  1  0  0  0
 13 15  1  0  0  0  0
 13 21  1  0  0  0  0
 14 46  1  0  0  0  0
 15 16  1  0  0  0  0
 16 17  1  1  0  0  0
 16 18  1  0  0  0  0
 18  2  1  6  0  0  0
 18 19  1  0  0  0  0
 19 20  1  6  0  0  0
 19 21  1  0  0  0  0
 21 22  1  6  0  0  0
 23 20  1  6  0  0  0
 23 24  1  0  0  0  0
 23 28  1  0  0  0  0
 24 25  1  1  0  0  0
 24 26  1  0  0  0  0
 26 27  1  0  0  0  0
 26 32  1  1  0  0  0
 27 28  1  0  0  0  0
 27 29  1  6  0  0  0
 29 30  1  0  0  0  0
 31 32  1  1  0  0  0
 31 33  1  0  0  0  0
 31 39  1  0  0  0  0
 33 36  1  0  0  0  0
 33 41  1  1  0  0  0
 34 40  1  0  0  0  0
 35 48  1  0  0  0  0
 36 37  1  0  0  0  0
 36 45  1  6  0  0  0
 37 38  1  0  0  0  0
 37 44  1  1  0  0  0
 38 39  1  0  0  0  0
 38 40  1  1  0  0  0
 43 47  1  0  0  0  0
 46 48  1  0  0  0  0
 48 43  1  1  0  0  0
M  END
>  <CHROM.1>
141.53234359,31.81013691,-67.87559560,-44.70629552,-86.26565686,114.44321665
-86.17807428,159.40117607,-84.18154759,53.58578375,89.65596689,-56.19149913
20.25866441,25.09599817,14.83261441,9.84045284,-2.85755127,1.02476212,-2.81066643

>  <Name>
ligand

>  <RI>
0

>  <Rbt.Current_Directory>
/home/itssahil/PROJECTS/Mol_Feturizer/New_Systems/rnas/4PDQ

>  <Rbt.Executable>
rbdock ($Id: //depot/dev/client3/rdock/2013.1/src/exe/rbdock.cxx#4 $)

>  <Rbt.Library>
libRbt.so (2013.1, Build901 2013/11/27)

>  <Rbt.Parameter_File>
/export/apps/rDock/src/rDock_2013.1_src/data/scripts/dock_solv.prm

>  <Rbt.Receptor>
prm/blind_docking_40.prm

>  <SCORE>
18.3689

>  <SCORE.INTER>
6.22037

>  <SCORE.INTER.CONST>
1

>  <SCORE.INTER.POLAR>
0

>  <SCORE.INTER.ROT>
13

>  <SCORE.INTER.SOLV>
29.6187

>  <SCORE.INTER.VDW>
-17.9927

>  <SCORE.INTER.norm>
0.126946

>  <SCORE.INTRA>
7.61482

>  <SCORE.INTRA.DIHEDRAL>
-4.78773

>  <SCORE.INTRA.DIHEDRAL.0>
34.5115

>  <SCORE.INTRA.POLAR>
0

>  <SCORE.INTRA.POLAR.0>
0

>  <SCORE.INTRA.REPUL>
0

>  <SCORE.INTRA.REPUL.0>
0

>  <SCORE.INTRA.SOLV>
1.21437

>  <SCORE.INTRA.SOLV.lig_0>
-122.812

>  <SCORE.INTRA.VDW>
9.4015

>  <SCORE.INTRA.VDW.0>
-7.46208

>  <SCORE.INTRA.norm>
0.155405

>  <SCORE.RESTR>
4.53373

>  <SCORE.RESTR.CAVITY>
4.53373

>  <SCORE.RESTR.norm>
0.0925252

>  <SCORE.SYSTEM>
0

>  <SCORE.SYSTEM.CONST>
0

>  <SCORE.SYSTEM.DIHEDRAL>
0

>  <SCORE.SYSTEM.SOLV>
0

>  <SCORE.SYSTEM.norm>
0

>  <SCORE.heavy>
49

>  <SCORE.norm>
0.374876

>  <RMSD>
10.563

$$$$
ligand
 OpenBabel11021811513D
libRbt.so/2013.1/901 2013/11/27
 49 52  0  0  0  0  0  0  0  0999 V2000
   27.4047   15.1170    7.2082 C   0  0  2  0  0  0  0  0  0  0  0  0
   26.9261   15.3753    8.4952 O   0  0  0  0  0  0  0  0  0  0  0  0
   26.9574   16.2696    6.2342 C   0  0  2  0  0  0  0  0  0  0  0  0
   27.5017   17.5940    6.7461 N   0  0  0  0  0  0  0  0  0  0  0  0
   26.8516    9.3567   10.9651 O   0  0  0  0  0  0  0  0  0  0  0  0
   25.4161   16.3028    6.1108 C   0  0  2  0  0  0  0  0  0  0  0  0
   27.2713    6.0996   14.7463 N   0  0  0  0  0  0  0  0  0  0  0  0
   24.8886   14.9486    5.6114 C   0  0  2  0  0  0  0  0  0  0  0  0
   25.3220   13.7592    6.5691 C   0  0  2  0  0  0  0  0  0  0  0  0
   26.8454   13.7990    6.7033 O   0  0  0  0  0  0  0  0  0  0  0  0
   24.8318   12.3851    6.0277 C   0  0  0  0  0  0  0  0  0  0  0  0
   25.6185   11.8746    4.9626 N   0  0  0  0  0  0  0  0  0  0  0  0
   26.2307   12.1762   11.3386 C   0  0  2  0  0  0  0  0  0  0  0  0
   26.4749   11.2352   12.4708 N   0  0  0  0  0  0  0  0  0  0  0  0
   27.5691   12.2021   10.4529 C   0  0  0  0  0  0  0  0  0  0  0  0
   27.3894   13.1577    9.2148 C   0  0  2  0  0  0  0  0  0  0  0  0
   28.6164   13.2057    8.4062 N   0  0  0  0  0  0  0  0  0  0  0  0
   27.0665   14.5892    9.6877 C   0  0  2  0  0  0  0  0  0  0  0  0
   25.7525   14.5985   10.5688 C   0  0  2  0  0  0  0  0  0  0  0  0
   25.5277   16.0036   10.9620 O   0  0  0  0  0  0  0  0  0  0  0  0
   25.9861   13.6648   11.8630 C   0  0  1  0  0  0  0  0  0  0  0  0
   24.8230   13.6924   12.6285 O   0  0  0  0  0  0  0  0  0  0  0  0
   24.5831   16.7817   10.5558 C   0  0  1  0  0  0  0  0  0  0  0  0
   23.8518   17.5924   11.6660 C   0  0  2  0  0  0  0  0  0  0  0  0
   22.7610   16.8437   12.1013 O   0  0  0  0  0  0  0  0  0  0  0  0
   23.4298   18.7455   10.8533 C   0  0  1  0  0  0  0  0  0  0  0  0
   24.5848   19.0911    9.8634 C   0  0  2  0  0  0  0  0  0  0  0  0
   24.9903   17.7783    9.5625 O   0  0  0  0  0  0  0  0  0  0  0  0
   25.6583   20.0793   10.3216 C   0  0  0  0  0  0  0  0  0  0  0  0
   26.2411   19.5205   11.4839 O   0  0  0  0  0  0  0  0  0  0  0  0
   22.2136   17.2189    9.3654 C   0  0  2  0  0  0  0  0  0  0  0  0
   22.1704   18.3326   10.1536 O   0  0  0  0  0  0  0  0  0  0  0  0
   21.0640   17.1640    8.4028 C   0  0  1  0  0  0  0  0  0  0  0  0
   22.9044   12.0766    9.6262 N   0  0  0  0  0  0  0  0  0  0  0  0
   25.7946    8.3895   13.9117 O   0  0  0  0  0  0  0  0  0  0  0  0
   21.1485   15.8310    7.5625 C   0  0  2  0  0  0  0  0  0  0  0  0
   21.1688   14.5328    8.4417 C   0  0  1  0  0  0  0  0  0  0  0  0
   22.2877   14.6045    9.3519 C   0  0  1  0  0  0  0  0  0  0  0  0
   22.2300   15.8789   10.1725 O   0  0  0  0  0  0  0  0  0  0  0  0
   22.3219   13.3241   10.2966 C   0  0  0  0  0  0  0  0  0  0  0  0
   19.8437   17.1594    9.1080 N   0  0  0  0  0  0  0  0  0  0  0  0
   25.1190   17.1194    5.3684 O   0  0  0  0  0  0  0  0  0  0  0  0
   27.8647    7.9457   13.0886 C   0  0  0  0  0  0  0  0  0  0  0  0
   20.1964   14.4934    9.0505 O   0  0  0  0  0  0  0  0  0  0  0  0
   22.1335   15.8439    6.9685 O   0  0  0  0  0  0  0  0  0  0  0  0
   26.7794    9.8104   12.1160 C   0  0  0  0  0  0  0  0  0  0  0  0
   28.0617    7.1349   14.1839 C   0  0  0  0  0  0  0  0  0  0  0  0
   27.0311    8.9229   13.4429 C   0  0  1  0  0  0  0  0  0  0  0  0
   25.3934   14.6823    4.3263 F   0  0  0  0  0  0  0  0  0  0  0  0
  1  2  1  1  0  0  0
  1 10  1  0  0  0  0
  1  3  1  0  0  0  0
  3  4  1  1  0  0  0
  3  6  1  0  0  0  0
  5 46  2  0  0  0  0
  6 42  1  6  0  0  0
  6  8  1  0  0  0  0
  7 47  1  0  0  0  0
  8  9  1  0  0  0  0
  8 49  1  6  0  0  0
  9 10  1  0  0  0  0
  9 11  1  6  0  0  0
 11 12  1  0  0  0  0
 13 14  1  1  0  0  0
 13 15  1  0  0  0  0
 13 21  1  0  0  0  0
 14 46  1  0  0  0  0
 15 16  1  0  0  0  0
 16 17  1  1  0  0  0
 16 18  1  0  0  0  0
 18  2  1  6  0  0  0
 18 19  1  0  0  0  0
 19 20  1  1  0  0  0
 19 21  1  0  0  0  0
 21 22  1  1  0  0  0
 23 20  1  1  0  0  0
 23 24  1  0  0  0  0
 23 28  1  0  0  0  0
 24 25  1  6  0  0  0
 24 26  1  0  0  0  0
 26 27  1  0  0  0  0
 26 32  1  6  0  0  0
 27 28  1  0  0  0  0
 27 29  1  1  0  0  0
 29 30  1  0  0  0  0
 31 32  1  1  0  0  0
 31 33  1  0  0  0  0
 31 39  1  0  0  0  0
 33 36  1  0  0  0  0
 33 41  1  1  0  0  0
 34 40  1  0  0  0  0
 35 48  1  0  0  0  0
 36 37  1  0  0  0  0
 36 45  1  1  0  0  0
 37 38  1  0  0  0  0
 37 44  1  1  0  0  0
 38 39  1  0  0  0  0
 38 40  1  1  0  0  0
 43 47  1  0  0  0  0
 46 48  1  0  0  0  0
 48 43  1  6  0  0  0
M  END
>  <CHROM.1>
178.62489108,-20.55867165,77.81580523,-60.72092273,110.44387243,133.56924437
-57.01787255,58.96609210,-161.70093461,79.01864926,79.86316200,-58.22718744
-92.25803942,24.94742924,14.39551578,9.55680035,-2.18811090,-0.93229014,2.13824864

>  <Name>
ligand

>  <RI>
0

>  <Rbt.Current_Directory>
/home/itssahil/PROJECTS/Mol_Feturizer/New_Systems/rnas/4PDQ

>  <Rbt.Executable>
rbdock ($Id: //depot/dev/client3/rdock/2013.1/src/exe/rbdock.cxx#4 $)

>  <Rbt.Library>
libRbt.so (2013.1, Build901 2013/11/27)

>  <Rbt.Parameter_File>
/export/apps/rDock/src/rDock_2013.1_src/data/scripts/dock_solv.prm

>  <Rbt.Receptor>
prm/blind_docking_80.prm

>  <SCORE>
28.1006

>  <SCORE.INTER>
7.57316

>  <SCORE.INTER.CONST>
1

>  <SCORE.INTER.POLAR>
0

>  <SCORE.INTER.ROT>
13

>  <SCORE.INTER.SOLV>
33.577

>  <SCORE.INTER.VDW>
-18.4102

>  <SCORE.INTER.norm>
0.154554

>  <SCORE.INTRA>
13.846

>  <SCORE.INTRA.DIHEDRAL>
-9.33773

>  <SCORE.INTRA.DIHEDRAL.0>
34.5115

>  <SCORE.INTRA.POLAR>
0

>  <SCORE.INTRA.POLAR.0>
0

>  <SCORE.INTRA.REPUL>
0.560019

>  <SCORE.INTRA.REPUL.0>
0

>  <SCORE.INTRA.SOLV>
5.53889

>  <SCORE.INTRA.SOLV.lig_0>
-122.812

>  <SCORE.INTRA.VDW>
12.9453

>  <SCORE.INTRA.VDW.0>
-7.46208

>  <SCORE.INTRA.norm>
0.282572

>  <SCORE.RESTR>
6.6814

>  <SCORE.RESTR.CAVITY>
6.6814

>  <SCORE.RESTR.norm>
0.136355

>  <SCORE.SYSTEM>
0

>  <SCORE.SYSTEM.CONST>
0

>  <SCORE.SYSTEM.DIHEDRAL>
0

>  <SCORE.SYSTEM.SOLV>
0

>  <SCORE.SYSTEM.norm>
0

>  <SCORE.heavy>
49

>  <SCORE.norm>
0.573481

>  <RMSD>
10.583

$$$$
ligand
 OpenBabel11021811513D
libRbt.so/2013.1/901 2013/11/27
 49 52  0  0  0  0  0  0  0  0999 V2000
   27.5595   14.3878    6.7259 C   0  0  2  0  0  0  0  0  0  0  0  0
   27.0596   14.8267    7.9545 O   0  0  0  0  0  0  0  0  0  0  0  0
   27.1921   15.4263    5.6017 C   0  0  2  0  0  0  0  0  0  0  0  0
   27.7835   16.7803    5.9613 N   0  0  0  0  0  0  0  0  0  0  0  0
   27.7317    9.0455   11.0131 O   0  0  0  0  0  0  0  0  0  0  0  0
   25.6578   15.5095    5.4258 C   0  0  2  0  0  0  0  0  0  0  0  0
   28.8821   10.1597   15.1442 N   0  0  0  0  0  0  0  0  0  0  0  0
   25.0813   14.1268    5.0829 C   0  0  2  0  0  0  0  0  0  0  0  0
   25.4337   13.0504    6.1950 C   0  0  2  0  0  0  0  0  0  0  0  0
   26.9532   13.0418    6.3719 O   0  0  0  0  0  0  0  0  0  0  0  0
   24.8946   11.6412    5.8141 C   0  0  0  0  0  0  0  0  0  0  0  0
   24.1688   11.0044    6.8541 N   0  0  0  0  0  0  0  0  0  0  0  0
   26.0757   11.3442   10.3434 C   0  0  2  0  0  0  0  0  0  0  0  0
   25.8486   10.4959   11.5500 N   0  0  0  0  0  0  0  0  0  0  0  0
   27.4601   12.1237   10.5715 C   0  0  0  0  0  0  0  0  0  0  0  0
   27.7914   13.0294    9.3272 C   0  0  2  0  0  0  0  0  0  0  0  0
   29.0480   13.7647    9.5327 N   0  0  0  0  0  0  0  0  0  0  0  0
   26.6636   14.0554    9.0982 C   0  0  2  0  0  0  0  0  0  0  0  0
   25.2816   13.3186    8.8738 C   0  0  2  0  0  0  0  0  0  0  0  0
   24.2775   14.3791    8.6580 O   0  0  0  0  0  0  0  0  0  0  0  0
   24.9343   12.4504   10.1879 C   0  0  1  0  0  0  0  0  0  0  0  0
   23.7126   11.8170    9.9741 O   0  0  0  0  0  0  0  0  0  0  0  0
   24.1014   15.4383    9.3720 C   0  0  1  0  0  0  0  0  0  0  0  0
   23.1243   15.2870   10.5749 C   0  0  2  0  0  0  0  0  0  0  0  0
   21.8452   15.6242   10.1387 O   0  0  0  0  0  0  0  0  0  0  0  0
   23.6916   16.3265   11.4500 C   0  0  1  0  0  0  0  0  0  0  0  0
   25.2454   16.2742   11.3227 C   0  0  2  0  0  0  0  0  0  0  0  0
   25.3245   16.0058    9.9442 O   0  0  0  0  0  0  0  0  0  0  0  0
   26.0180   15.3562   12.2710 C   0  0  0  0  0  0  0  0  0  0  0  0
   27.1615   16.0821   12.6811 O   0  0  0  0  0  0  0  0  0  0  0  0
   23.9767   18.5752   10.5091 C   0  0  2  0  0  0  0  0  0  0  0  0
   23.1153   17.6305   10.9877 O   0  0  0  0  0  0  0  0  0  0  0  0
   23.3262   19.9217   10.3868 C   0  0  1  0  0  0  0  0  0  0  0  0
   25.0674   18.5441    6.0620 N   0  0  0  0  0  0  0  0  0  0  0  0
   25.9267    7.2360   12.7732 O   0  0  0  0  0  0  0  0  0  0  0  0
   24.3599   20.9492    9.7820 C   0  0  2  0  0  0  0  0  0  0  0  0
   24.9431   20.5119    8.3937 C   0  0  1  0  0  0  0  0  0  0  0  0
   25.5716   19.2199    8.5389 C   0  0  1  0  0  0  0  0  0  0  0  0
   24.5974   18.2125    9.1197 O   0  0  0  0  0  0  0  0  0  0  0  0
   26.1407   18.7155    7.1408 C   0  0  0  0  0  0  0  0  0  0  0  0
   22.2224   19.8470    9.5137 N   0  0  0  0  0  0  0  0  0  0  0  0
   25.4186   16.2378    4.5781 O   0  0  0  0  0  0  0  0  0  0  0  0
   27.5487    8.4440   13.8076 C   0  0  0  0  0  0  0  0  0  0  0  0
   24.0742   20.4211    7.6491 O   0  0  0  0  0  0  0  0  0  0  0  0
   25.2509   21.0284   10.5052 O   0  0  0  0  0  0  0  0  0  0  0  0
   26.7855    9.3433   11.7559 C   0  0  0  0  0  0  0  0  0  0  0  0
   27.8639    9.7027   14.2683 C   0  0  0  0  0  0  0  0  0  0  0  0
   26.4200    8.5321   13.1050 C   0  0  1  0  0  0  0  0  0  0  0  0
   25.6070   13.6791    3.8579 F   0  0  0  0  0  0  0  0  0  0  0  0
  1  2  1  1  0  0  0
  1 10  1  0  0  0  0
  1  3  1  0  0  0  0
  3  4  1  1  0  0  0
  3  6  1  0  0  0  0
  5 46  2  0  0  0  0
  6 42  1  6  0  0  0
  6  8  1  0  0  0  0
  7 47  1  0  0  0  0
  8  9  1  0  0  0  0
  8 49  1  6  0  0  0
  9 10  1  0  0  0  0
  9 11  1  6  0  0  0
 11 12  1  0  0  0  0
 13 14  1  1  0  0  0
 13 15  1  0  0  0  0
 13 21  1  0  0  0  0
 14 46  1  0  0  0  0
 15 16  1  0  0  0  0
 16 17  1  1  0  0  0
 16 18  1  0  0  0  0
 18  2  1  6  0  0  0
 18 19  1  0  0  0  0
 19 20  1  1  0  0  0
 19 21  1  0  0  0  0
 21 22  1  6  0  0  0
 23 20  1  1  0  0  0
 23 24  1  0  0  0  0
 23 28  1  0  0  0  0
 24 25  1  6  0  0  0
 24 26  1  0  0  0  0
 26 27  1  0  0  0  0
 26 32  1  6  0  0  0
 27 28  1  0  0  0  0
 27 29  1  1  0  0  0
 29 30  1  0  0  0  0
 31 32  1  6  0  0  0
 31 33  1  0  0  0  0
 31 39  1  0  0  0  0
 33 36  1  0  0  0  0
 33 41  1  6  0  0  0
 34 40  1  0  0  0  0
 35 48  1  0  0  0  0
 36 37  1  0  0  0  0
 36 45  1  1  0  0  0
 37 38  1  0  0  0  0
 37 44  1  6  0  0  0
 38 39  1  0  0  0  0
 38 40  1  6  0  0  0
 43 47  1  0  0  0  0
 46 48  1  0  0  0  0
 48 43  1  1  0  0  0
M  END
>  <CHROM.1>
152.26437621,46.57286806,-130.81324633,-68.13384338,-48.23255760,-88.64957347
-117.46800356,-138.30486924,-166.62334498,-60.84953741,174.08218929,-171.02745934
-68.93693662,25.58410312,14.67715890,9.28958473,-2.58585010,-1.30309648,1.75657319

>  <Name>
ligand

>  <RI>
0

>  <Rbt.Current_Directory>
/home/itssahil/PROJECTS/Mol_Feturizer/New_Systems/rnas/4PDQ

>  <Rbt.Executable>
rbdock ($Id: //depot/dev/client3/rdock/2013.1/src/exe/rbdock.cxx#4 $)

>  <Rbt.Library>
libRbt.so (2013.1, Build901 2013/11/27)

>  <Rbt.Parameter_File>
/export/apps/rDock/src/rDock_2013.1_src/data/scripts/dock_solv.prm

>  <Rbt.Receptor>
prm/blind_docking_80.prm

>  <SCORE>
29.118

>  <SCORE.INTER>
17.1387

>  <SCORE.INTER.CONST>
1

>  <SCORE.INTER.POLAR>
0

>  <SCORE.INTER.ROT>
13

>  <SCORE.INTER.SOLV>
27.8901

>  <SCORE.INTER.VDW>
-10.1376

>  <SCORE.INTER.norm>
0.349769

>  <SCORE.INTRA>
7.08336

>  <SCORE.INTRA.DIHEDRAL>
-6.58079

>  <SCORE.INTRA.DIHEDRAL.0>
34.5115

>  <SCORE.INTRA.POLAR>
0

>  <SCORE.INTRA.POLAR.0>
0

>  <SCORE.INTRA.REPUL>
0.0297807

>  <SCORE.INTRA.REPUL.0>
0

>  <SCORE.INTRA.SOLV>
7.09716

>  <SCORE.INTRA.SOLV.lig_0>
-122.812

>  <SCORE.INTRA.VDW>
6.67627

>  <SCORE.INTRA.VDW.0>
-7.46208

>  <SCORE.INTRA.norm>
0.144558

>  <SCORE.RESTR>
4.89598

>  <SCORE.RESTR.CAVITY>
4.89598

>  <SCORE.RESTR.norm>
0.099918

>  <SCORE.SYSTEM>
0

>  <SCORE.SYSTEM.CONST>
0

>  <SCORE.SYSTEM.DIHEDRAL>
0

>  <SCORE.SYSTEM.SOLV>
0

>  <SCORE.SYSTEM.norm>
0

>  <SCORE.heavy>
49

>  <SCORE.norm>
0.594246

>  <RMSD>
10.583

$$$$
ligand
 OpenBabel11021811513D
libRbt.so/2013.1/901 2013/11/27
 49 52  0  0  0  0  0  0  0  0999 V2000
   24.0948   12.9038   10.5014 C   0  0  2  0  0  0  0  0  0  0  0  0
   24.8915   12.2585    9.5523 O   0  0  0  0  0  0  0  0  0  0  0  0
   23.2438   14.0289    9.8036 C   0  0  2  0  0  0  0  0  0  0  0  0
   22.3774   13.4008    8.7232 N   0  0  0  0  0  0  0  0  0  0  0  0
   28.0974    7.5207   13.3519 O   0  0  0  0  0  0  0  0  0  0  0  0
   24.1702   15.1211    9.2198 C   0  0  2  0  0  0  0  0  0  0  0  0
   30.4333    3.0603   10.7454 N   0  0  0  0  0  0  0  0  0  0  0  0
   25.0490   15.7264   10.3257 C   0  0  2  0  0  0  0  0  0  0  0  0
   25.9222   14.6195   11.0550 C   0  0  2  0  0  0  0  0  0  0  0  0
   24.9707   13.5368   11.5676 O   0  0  0  0  0  0  0  0  0  0  0  0
   26.7675   15.2309   12.2097 C   0  0  0  0  0  0  0  0  0  0  0  0
   27.5288   16.3650   11.8247 N   0  0  0  0  0  0  0  0  0  0  0  0
   26.3740    8.5514   11.2442 C   0  0  2  0  0  0  0  0  0  0  0  0
   26.8088    7.1259   11.3217 N   0  0  0  0  0  0  0  0  0  0  0  0
   24.9957    8.5778   10.4221 C   0  0  0  0  0  0  0  0  0  0  0  0
   24.4498   10.0503   10.3132 C   0  0  2  0  0  0  0  0  0  0  0  0
   23.1971   10.0903    9.5443 N   0  0  0  0  0  0  0  0  0  0  0  0
   25.4807   10.9508    9.6036 C   0  0  2  0  0  0  0  0  0  0  0  0
   26.8548   10.9439   10.3876 C   0  0  2  0  0  0  0  0  0  0  0  0
   27.7634   11.8339    9.6382 O   0  0  0  0  0  0  0  0  0  0  0  0
   27.4243    9.4354   10.4280 C   0  0  1  0  0  0  0  0  0  0  0  0
   28.6361    9.4517   11.1142 O   0  0  0  0  0  0  0  0  0  0  0  0
   27.4623   12.9534    9.0734 C   0  0  1  0  0  0  0  0  0  0  0  0
   28.6601   13.7590    8.4896 C   0  0  2  0  0  0  0  0  0  0  0  0
   29.1227   14.6242    9.4782 O   0  0  0  0  0  0  0  0  0  0  0  0
   27.9410   14.4822    7.4277 C   0  0  1  0  0  0  0  0  0  0  0  0
   26.8994   13.5080    6.7956 C   0  0  2  0  0  0  0  0  0  0  0  0
   26.5012   12.8492    7.9729 O   0  0  0  0  0  0  0  0  0  0  0  0
   27.3415   12.6450    5.6129 C   0  0  0  0  0  0  0  0  0  0  0  0
   26.1805   12.4087    4.8390 O   0  0  0  0  0  0  0  0  0  0  0  0
   26.1869   16.1974    7.4969 C   0  0  2  0  0  0  0  0  0  0  0  0
   27.3020   15.6698    8.0815 O   0  0  0  0  0  0  0  0  0  0  0  0
   26.2925   16.2221    6.0005 C   0  0  1  0  0  0  0  0  0  0  0  0
   24.2558   19.7749    9.4932 N   0  0  0  0  0  0  0  0  0  0  0  0
   26.9063    4.4113   12.1278 O   0  0  0  0  0  0  0  0  0  0  0  0
   24.9964   16.8886    5.3955 C   0  0  2  0  0  0  0  0  0  0  0  0
   24.7231   18.3359    5.9336 C   0  0  1  0  0  0  0  0  0  0  0  0
   24.6159   18.2849    7.3729 C   0  0  1  0  0  0  0  0  0  0  0  0
   25.8512   17.6470    7.9798 O   0  0  0  0  0  0  0  0  0  0  0  0
   24.3815   19.7425    7.9674 C   0  0  0  0  0  0  0  0  0  0  0  0
   27.4046   16.9936    5.6076 N   0  0  0  0  0  0  0  0  0  0  0  0
   23.5286   15.9452    8.7555 O   0  0  0  0  0  0  0  0  0  0  0  0
   28.9857    5.0357   11.4597 C   0  0  0  0  0  0  0  0  0  0  0  0
   25.6148   19.0010    5.6507 O   0  0  0  0  0  0  0  0  0  0  0  0
   24.0901   16.2471    5.6962 O   0  0  0  0  0  0  0  0  0  0  0  0
   27.7011    6.7494   12.4666 C   0  0  0  0  0  0  0  0  0  0  0  0
   29.5383    3.7801   11.5782 C   0  0  0  0  0  0  0  0  0  0  0  0
   28.0730    5.1774   12.4200 C   0  0  1  0  0  0  0  0  0  0  0  0
   24.2407   16.3527   11.2909 F   0  0  0  0  0  0  0  0  0  0  0  0
  1  2  1  6  0  0  0
  1 10  1  0  0  0  0
  1  3  1  0  0  0  0
  3  4  1  6  0  0  0
  3  6  1  0  0  0  0
  5 46  2  0  0  0  0
  6 42  1  1  0  0  0
  6  8  1  0  0  0  0
  7 47  1  0  0  0  0
  8  9  1  0  0  0  0
  8 49  1  1  0  0  0
  9 10  1  0  0  0  0
  9 11  1  1  0  0  0
 11 12  1  0  0  0  0
 13 14  1  6  0  0  0
 13 15  1  0  0  0  0
 13 21  1  0  0  0  0
 14 46  1  0  0  0  0
 15 16  1  0  0  0  0
 16 17  1  6  0  0  0
 16 18  1  0  0  0  0
 18  2  1  1  0  0  0
 18 19  1  0  0  0  0
 19 20  1  6  0  0  0
 19 21  1  0  0  0  0
 21 22  1  1  0  0  0
 23 20  1  6  0  0  0
 23 24  1  0  0  0  0
 23 28  1  0  0  0  0
 24 25  1  1  0  0  0
 24 26  1  0  0  0  0
 26 27  1  0  0  0  0
 26 32  1  1  0  0  0
 27 28  1  0  0  0  0
 27 29  1  6  0  0  0
 29 30  1  0  0  0  0
 31 32  1  1  0  0  0
 31 33  1  0  0  0  0
 31 39  1  0  0  0  0
 33 36  1  0  0  0  0
 33 41  1  1  0  0  0
 34 40  1  0  0  0  0
 35 48  1  0  0  0  0
 36 37  1  0  0  0  0
 36 45  1  1  0  0  0
 37 38  1  0  0  0  0
 37 44  1  1  0  0  0
 38 39  1  0  0  0  0
 38 40  1  1  0  0  0
 43 47  1  0  0  0  0
 46 48  1  0  0  0  0
 48 43  1  6  0  0  0
M  END
>  <CHROM.1>
-157.80665395,36.87471887,-51.10808927,-155.15426162,39.37693251,173.32902615
-154.52821348,-151.19367169,-39.94345605,179.95938748,172.07023164,-73.38738704
135.02235815,26.20723626,12.82256410,9.29543123,1.96791502,0.96199153,-0.67627759

>  <Name>
ligand

>  <RI>
0

>  <Rbt.Current_Directory>
/home/itssahil/PROJECTS/Mol_Feturizer/New_Systems/rnas/4PDQ

>  <Rbt.Executable>
rbdock ($Id: //depot/dev/client3/rdock/2013.1/src/exe/rbdock.cxx#4 $)

>  <Rbt.Library>
libRbt.so (2013.1, Build901 2013/11/27)

>  <Rbt.Parameter_File>
/export/apps/rDock/src/rDock_2013.1_src/data/scripts/dock_solv.prm

>  <Rbt.Receptor>
prm/blind_docking_100.prm

>  <SCORE>
9.91388

>  <SCORE.INTER>
5.66452

>  <SCORE.INTER.CONST>
1

>  <SCORE.INTER.POLAR>
0

>  <SCORE.INTER.ROT>
13

>  <SCORE.INTER.SOLV>
29.9432

>  <SCORE.INTER.VDW>
-18.4714

>  <SCORE.INTER.norm>
0.115603

>  <SCORE.INTRA>
-0.102511

>  <SCORE.INTRA.DIHEDRAL>
-18.1896

>  <SCORE.INTRA.DIHEDRAL.0>
34.5115

>  <SCORE.INTRA.POLAR>
0

>  <SCORE.INTRA.POLAR.0>
0

>  <SCORE.INTRA.REPUL>
0.522344

>  <SCORE.INTRA.REPUL.0>
0

>  <SCORE.INTRA.SOLV>
3.75374

>  <SCORE.INTRA.SOLV.lig_0>
-122.812

>  <SCORE.INTRA.VDW>
4.50371

>  <SCORE.INTRA.VDW.0>
-7.46208

>  <SCORE.INTRA.norm>
-0.00209207

>  <SCORE.RESTR>
4.35187

>  <SCORE.RESTR.CAVITY>
4.35187

>  <SCORE.RESTR.norm>
0.0888136

>  <SCORE.SYSTEM>
0

>  <SCORE.SYSTEM.CONST>
0

>  <SCORE.SYSTEM.DIHEDRAL>
0

>  <SCORE.SYSTEM.SOLV>
0

>  <SCORE.SYSTEM.norm>
0

>  <SCORE.heavy>
49

>  <SCORE.norm>
0.202324

>  <RMSD>
10.598

$$$$
ligand
 OpenBabel11021811513D
libRbt.so/2013.1/901 2013/11/27
 49 52  0  0  0  0  0  0  0  0999 V2000
   25.3436   13.3783    7.6062 C   0  0  2  0  0  0  0  0  0  0  0  0
   26.3018   12.9543    8.5303 O   0  0  0  0  0  0  0  0  0  0  0  0
   25.8819   14.6313    6.8204 C   0  0  2  0  0  0  0  0  0  0  0  0
   27.1737   14.2573    6.1105 N   0  0  0  0  0  0  0  0  0  0  0  0
   25.5156    8.7575   12.3994 O   0  0  0  0  0  0  0  0  0  0  0  0
   26.0921   15.8222    7.7843 C   0  0  2  0  0  0  0  0  0  0  0  0
   24.5517    4.9113   15.4622 N   0  0  0  0  0  0  0  0  0  0  0  0
   24.7791   16.1684    8.5038 C   0  0  2  0  0  0  0  0  0  0  0  0
   24.2036   14.9263    9.3073 C   0  0  2  0  0  0  0  0  0  0  0  0
   24.0632   13.7603    8.3270 O   0  0  0  0  0  0  0  0  0  0  0  0
   22.8461   15.2678    9.9872 C   0  0  0  0  0  0  0  0  0  0  0  0
   22.9685   16.1184   11.1166 N   0  0  0  0  0  0  0  0  0  0  0  0
   27.6926    9.3915   10.5736 C   0  0  2  0  0  0  0  0  0  0  0  0
   27.7732    8.3099   11.5987 N   0  0  0  0  0  0  0  0  0  0  0  0
   27.5434   10.7793   11.3663 C   0  0  0  0  0  0  0  0  0  0  0  0
   27.4758   11.9841   10.3553 C   0  0  2  0  0  0  0  0  0  0  0  0
   27.3187   13.2600   11.0690 N   0  0  0  0  0  0  0  0  0  0  0  0
   26.2768   11.8138    9.4012 C   0  0  2  0  0  0  0  0  0  0  0  0
   26.3909   10.4509    8.6059 C   0  0  2  0  0  0  0  0  0  0  0  0
   25.2099   10.3871    7.7223 O   0  0  0  0  0  0  0  0  0  0  0  0
   26.3923    9.2306    9.6605 C   0  0  1  0  0  0  0  0  0  0  0  0
   26.4853    8.0414    8.9415 O   0  0  0  0  0  0  0  0  0  0  0  0
   25.2027   10.1754    6.4504 C   0  0  1  0  0  0  0  0  0  0  0  0
   25.9652    8.9044    5.9730 C   0  0  2  0  0  0  0  0  0  0  0  0
   27.2799    9.2685    5.6918 O   0  0  0  0  0  0  0  0  0  0  0  0
   25.2001    8.6388    4.7433 C   0  0  1  0  0  0  0  0  0  0  0  0
   23.6965    8.9369    5.0325 C   0  0  2  0  0  0  0  0  0  0  0  0
   23.8702   10.0671    5.8516 O   0  0  0  0  0  0  0  0  0  0  0  0
   22.8236    7.7999    5.5658 C   0  0  0  0  0  0  0  0  0  0  0  0
   23.2049    7.6071    6.9150 O   0  0  0  0  0  0  0  0  0  0  0  0
   25.1505    9.5673    2.4720 C   0  0  2  0  0  0  0  0  0  0  0  0
   25.7752    9.5311    3.6853 O   0  0  0  0  0  0  0  0  0  0  0  0
   25.2280    8.2500    1.7579 C   0  0  1  0  0  0  0  0  0  0  0  0
   24.9813   12.1933   -2.0422 N   0  0  0  0  0  0  0  0  0  0  0  0
   27.9695    7.1524   14.2955 O   0  0  0  0  0  0  0  0  0  0  0  0
   24.5335    8.3782    0.3468 C   0  0  2  0  0  0  0  0  0  0  0  0
   25.1420    9.5084   -0.5539 C   0  0  1  0  0  0  0  0  0  0  0  0
   25.0473   10.7660    0.1496 C   0  0  1  0  0  0  0  0  0  0  0  0
   25.7082   10.6690    1.5116 O   0  0  0  0  0  0  0  0  0  0  0  0
   25.6945   11.9376   -0.7115 C   0  0  0  0  0  0  0  0  0  0  0  0
   26.5753    7.8916    1.5510 N   0  0  0  0  0  0  0  0  0  0  0  0
   26.4434   16.7297    7.1848 O   0  0  0  0  0  0  0  0  0  0  0  0
   25.7181    6.8506   14.2845 C   0  0  0  0  0  0  0  0  0  0  0  0
   26.2492    9.2675   -0.7373 O   0  0  0  0  0  0  0  0  0  0  0  0
   23.4280    8.6482    0.5150 O   0  0  0  0  0  0  0  0  0  0  0  0
   26.5685    8.1075   12.4685 C   0  0  0  0  0  0  0  0  0  0  0  0
   25.6131    5.5765   14.7959 C   0  0  0  0  0  0  0  0  0  0  0  0
   26.8042    6.8981   13.5140 C   0  0  1  0  0  0  0  0  0  0  0  0
   23.8109   16.5704    7.5666 F   0  0  0  0  0  0  0  0  0  0  0  0
  1  2  1  1  0  0  0
  1 10  1  0  0  0  0
  1  3  1  0  0  0  0
  3  4  1  1  0  0  0
  3  6  1  0  0  0  0
  5 46  2  0  0  0  0
  6 42  1  6  0  0  0
  6  8  1  0  0  0  0
  7 47  1  0  0  0  0
  8  9  1  0  0  0  0
  8 49  1  6  0  0  0
  9 10  1  0  0  0  0
  9 11  1  6  0  0  0
 11 12  1  0  0  0  0
 13 14  1  1  0  0  0
 13 15  1  0  0  0  0
 13 21  1  0  0  0  0
 14 46  1  0  0  0  0
 15 16  1  0  0  0  0
 16 17  1  1  0  0  0
 16 18  1  0  0  0  0
 18  2  1  6  0  0  0
 18 19  1  0  0  0  0
 19 20  1  6  0  0  0
 19 21  1  0  0  0  0
 21 22  1  6  0  0  0
 23 20  1  1  0  0  0
 23 24  1  0  0  0  0
 23 28  1  0  0  0  0
 24 25  1  6  0  0  0
 24 26  1  0  0  0  0
 26 27  1  0  0  0  0
 26 32  1  6  0  0  0
 27 28  1  0  0  0  0
 27 29  1  1  0  0  0
 29 30  1  0  0  0  0
 31 32  1  1  0  0  0
 31 33  1  0  0  0  0
 31 39  1  0  0  0  0
 33 36  1  0  0  0  0
 33 41  1  6  0  0  0
 34 40  1  0  0  0  0
 35 48  1  0  0  0  0
 36 37  1  0  0  0  0
 36 45  1  1  0  0  0
 37 38  1  0  0  0  0
 37 44  1  1  0  0  0
 38 39  1  0  0  0  0
 38 40  1  6  0  0  0
 43 47  1  0  0  0  0
 46 48  1  0  0  0  0
 48 43  1  1  0  0  0
M  END
>  <CHROM.1>
-175.99101067,-170.57336971,-73.26324003,63.76754720,127.64467115,52.89371918
-173.86513837,73.42642632,-65.26194840,62.99694904,-167.07752221,-84.42086269
-124.44655934,25.53214545,10.64752840,7.11565281,0.66527074,-1.46485043,0.76575671

>  <Name>
ligand

>  <RI>
0

>  <Rbt.Current_Directory>
/home/itssahil/PROJECTS/Mol_Feturizer/New_Systems/rnas/4PDQ

>  <Rbt.Executable>
rbdock ($Id: //depot/dev/client3/rdock/2013.1/src/exe/rbdock.cxx#4 $)

>  <Rbt.Library>
libRbt.so (2013.1, Build901 2013/11/27)

>  <Rbt.Parameter_File>
/export/apps/rDock/src/rDock_2013.1_src/data/scripts/dock_solv.prm

>  <Rbt.Receptor>
prm/pocket_docking_7.prm

>  <SCORE>
-12.4796

>  <SCORE.INTER>
-3.12809

>  <SCORE.INTER.CONST>
1

>  <SCORE.INTER.POLAR>
0

>  <SCORE.INTER.ROT>
13

>  <SCORE.INTER.SOLV>
19.2218

>  <SCORE.INTER.VDW>
-20.7593

>  <SCORE.INTER.norm>
-0.0638386

>  <SCORE.INTRA>
-9.48613

>  <SCORE.INTRA.DIHEDRAL>
-21.9201

>  <SCORE.INTRA.DIHEDRAL.0>
34.5115

>  <SCORE.INTRA.POLAR>
0

>  <SCORE.INTRA.POLAR.0>
0

>  <SCORE.INTRA.REPUL>
0

>  <SCORE.INTRA.REPUL.0>
0

>  <SCORE.INTRA.SOLV>
-3.11126

>  <SCORE.INTRA.SOLV.lig_0>
-122.812

>  <SCORE.INTRA.VDW>
3.02957

>  <SCORE.INTRA.VDW.0>
-7.46208

>  <SCORE.INTRA.norm>
-0.193594

>  <SCORE.RESTR>
0.134583

>  <SCORE.RESTR.CAVITY>
0.134583

>  <SCORE.RESTR.norm>
0.0027466

>  <SCORE.SYSTEM>
0

>  <SCORE.SYSTEM.CONST>
0

>  <SCORE.SYSTEM.DIHEDRAL>
0

>  <SCORE.SYSTEM.SOLV>
0

>  <SCORE.SYSTEM.norm>
0

>  <SCORE.heavy>
49

>  <SCORE.norm>
-0.254686

>  <RMSD>
10.598

$$$$
ligand
 OpenBabel11021811513D
libRbt.so/2013.1/901 2013/11/27
 49 52  0  0  0  0  0  0  0  0999 V2000
   25.3942   17.4657    9.5613 C   0  0  2  0  0  0  0  0  0  0  0  0
   24.6556   16.2827    9.4772 O   0  0  0  0  0  0  0  0  0  0  0  0
   24.5436   18.5720   10.2892 C   0  0  2  0  0  0  0  0  0  0  0  0
   24.1708   18.0800   11.6790 N   0  0  0  0  0  0  0  0  0  0  0  0
   26.7076   10.9299   10.8105 O   0  0  0  0  0  0  0  0  0  0  0  0
   23.2868   18.9193    9.4576 C   0  0  2  0  0  0  0  0  0  0  0  0
   26.9358    6.0884   11.1384 N   0  0  0  0  0  0  0  0  0  0  0  0
   23.6879   19.3945    8.0522 C   0  0  2  0  0  0  0  0  0  0  0  0
   24.5502   18.3038    7.2865 C   0  0  2  0  0  0  0  0  0  0  0  0
   25.7501   17.9535    8.1684 O   0  0  0  0  0  0  0  0  0  0  0  0
   24.9995   18.8137    5.8865 C   0  0  0  0  0  0  0  0  0  0  0  0
   23.9291   18.9997    4.9734 N   0  0  0  0  0  0  0  0  0  0  0  0
   25.4722   13.1000   12.3067 C   0  0  2  0  0  0  0  0  0  0  0  0
   25.6307   11.7188   12.8491 N   0  0  0  0  0  0  0  0  0  0  0  0
   24.0925   13.1270   11.4870 C   0  0  0  0  0  0  0  0  0  0  0  0
   23.8327   14.5633   10.8971 C   0  0  2  0  0  0  0  0  0  0  0  0
   22.5809   14.5958   10.1265 N   0  0  0  0  0  0  0  0  0  0  0  0
   24.9869   14.9727    9.9606 C   0  0  2  0  0  0  0  0  0  0  0  0
   26.3647   14.9523   10.7378 C   0  0  2  0  0  0  0  0  0  0  0  0
   27.3955   15.3628    9.7639 O   0  0  0  0  0  0  0  0  0  0  0  0
   26.6381   13.4562   11.2750 C   0  0  1  0  0  0  0  0  0  0  0  0
   27.8572   13.4574   11.9483 O   0  0  0  0  0  0  0  0  0  0  0  0
   27.7190   14.7552    8.6735 C   0  0  1  0  0  0  0  0  0  0  0  0
   28.6178   15.5630    7.6916 C   0  0  2  0  0  0  0  0  0  0  0  0
   27.7869   16.2530    6.8121 O   0  0  0  0  0  0  0  0  0  0  0  0
   29.2903   14.4325    7.0298 C   0  0  1  0  0  0  0  0  0  0  0  0
   29.5935   13.3480    8.1093 C   0  0  2  0  0  0  0  0  0  0  0  0
   28.4125   13.4788    8.8620 O   0  0  0  0  0  0  0  0  0  0  0  0
   30.9254   13.4247    8.8571 C   0  0  0  0  0  0  0  0  0  0  0  0
   31.3785   12.0914    8.9973 O   0  0  0  0  0  0  0  0  0  0  0  0
   27.1326   13.4764    6.3563 C   0  0  2  0  0  0  0  0  0  0  0  0
   28.3535   13.9460    5.9659 O   0  0  0  0  0  0  0  0  0  0  0  0
   26.5821   12.4665    5.3929 C   0  0  1  0  0  0  0  0  0  0  0  0
   23.4115   16.1260    5.8520 N   0  0  0  0  0  0  0  0  0  0  0  0
   25.5626    9.2502   13.8421 O   0  0  0  0  0  0  0  0  0  0  0  0
   25.1525   12.0065    5.8773 C   0  0  2  0  0  0  0  0  0  0  0  0
   24.1356   13.1877    6.0487 C   0  0  1  0  0  0  0  0  0  0  0  0
   24.6825   14.1402    6.9864 C   0  0  1  0  0  0  0  0  0  0  0  0
   26.0589   14.5986    6.5432 O   0  0  0  0  0  0  0  0  0  0  0  0
   23.7008   15.3811    7.1583 C   0  0  0  0  0  0  0  0  0  0  0  0
   26.4456   13.0435    4.1143 N   0  0  0  0  0  0  0  0  0  0  0  0
   22.7086   19.7518    9.9857 O   0  0  0  0  0  0  0  0  0  0  0  0
   25.9914    8.3658   11.7942 C   0  0  0  0  0  0  0  0  0  0  0  0
   24.0039   13.7018    5.0309 O   0  0  0  0  0  0  0  0  0  0  0  0
   25.2657   11.5145    6.9109 O   0  0  0  0  0  0  0  0  0  0  0  0
   26.2844   10.7087   11.9540 C   0  0  0  0  0  0  0  0  0  0  0  0
   26.7650    7.2378   11.9525 C   0  0  0  0  0  0  0  0  0  0  0  0
   26.3948    9.2714   12.6844 C   0  0  1  0  0  0  0  0  0  0  0  0
   24.4520   20.5713    8.1444 F   0  0  0  0  0  0  0  0  0  0  0  0
  1  2  1  6  0  0  0
  1 10  1  0  0  0  0
  1  3  1  0  0  0  0
  3  4  1  1  0  0  0
  3  6  1  0  0  0  0
  5 46  2  0  0  0  0
  6 42  1  1  0  0  0
  6  8  1  0  0  0  0
  7 47  1  0  0  0  0
  8  9  1  0  0  0  0
  8 49  1  1  0  0  0
  9 10  1  0  0  0  0
  9 11  1  6  0  0  0
 11 12  1  0  0  0  0
 13 14  1  6  0  0  0
 13 15  1  0  0  0  0
 13 21  1  0  0  0  0
 14 46  1  0  0  0  0
 15 16  1  0  0  0  0
 16 17  1  6  0  0  0
 16 18  1  0  0  0  0
 18  2  1  1  0  0  0
 18 19  1  0  0  0  0
 19 20  1  6  0  0  0
 19 21  1  0  0  0  0
 21 22  1  1  0  0  0
 23 20  1  1  0  0  0
 23 24  1  0  0  0  0
 23 28  1  0  0  0  0
 24 25  1  6  0  0  0
 24 26  1  0  0  0  0
 26 27  1  0  0  0  0
 26 32  1  6  0  0  0
 27 28  1  0  0  0  0
 27 29  1  1  0  0  0
 29 30  1  0  0  0  0
 31 32  1  6  0  0  0
 31 33  1  0  0  0  0
 31 39  1  0  0  0  0
 33 36  1  0  0  0  0
 33 41  1  6  0  0  0
 34 40  1  0  0  0  0
 35 48  1  0  0  0  0
 36 37  1  0  0  0  0
 36 45  1  1  0  0  0
 37 38  1  0  0  0  0
 37 44  1  6  0  0  0
 38 39  1  0  0  0  0
 38 40  1  6  0  0  0
 43 47  1  0  0  0  0
 46 48  1  0  0  0  0
 48 43  1  6  0  0  0
M  END
>  <CHROM.1>
-122.99425253,123.42275997,-66.67029473,86.55811818,-62.01589531,167.41990933
-61.45203380,-140.57552127,-152.70390042,-58.61147224,-166.90334551,-97.25966835
-166.82222675,25.93855424,14.34564579,8.87960071,2.08702906,1.00118596,-0.85036465

>  <Name>
ligand

>  <RI>
0

>  <Rbt.Current_Directory>
/home/itssahil/PROJECTS/Mol_Feturizer/New_Systems/rnas/4PDQ

>  <Rbt.Executable>
rbdock ($Id: //depot/dev/client3/rdock/2013.1/src/exe/rbdock.cxx#4 $)

>  <Rbt.Library>
libRbt.so (2013.1, Build901 2013/11/27)

>  <Rbt.Parameter_File>
/export/apps/rDock/src/rDock_2013.1_src/data/scripts/dock_solv.prm

>  <Rbt.Receptor>
prm/blind_docking_60.prm

>  <SCORE>
30.0166

>  <SCORE.INTER>
17.1857

>  <SCORE.INTER.CONST>
1

>  <SCORE.INTER.POLAR>
0

>  <SCORE.INTER.ROT>
13

>  <SCORE.INTER.SOLV>
27.214

>  <SCORE.INTER.VDW>
-9.88084

>  <SCORE.INTER.norm>
0.350729

>  <SCORE.INTRA>
12.4073

>  <SCORE.INTRA.DIHEDRAL>
-5.35668

>  <SCORE.INTRA.DIHEDRAL.0>
34.5115

>  <SCORE.INTRA.POLAR>
0

>  <SCORE.INTRA.POLAR.0>
0

>  <SCORE.INTRA.REPUL>
0.797207

>  <SCORE.INTRA.REPUL.0>
0

>  <SCORE.INTRA.SOLV>
7.8127

>  <SCORE.INTRA.SOLV.lig_0>
-122.812

>  <SCORE.INTRA.VDW>
7.1933

>  <SCORE.INTRA.VDW.0>
-7.46208

>  <SCORE.INTRA.norm>
0.253211

>  <SCORE.RESTR>
0.423514

>  <SCORE.RESTR.CAVITY>
0.423514

>  <SCORE.RESTR.norm>
0.00864314

>  <SCORE.SYSTEM>
0

>  <SCORE.SYSTEM.CONST>
0

>  <SCORE.SYSTEM.DIHEDRAL>
0

>  <SCORE.SYSTEM.SOLV>
0

>  <SCORE.SYSTEM.norm>
0

>  <SCORE.heavy>
49

>  <SCORE.norm>
0.612583

>  <RMSD>
10.604

$$$$
ligand
 OpenBabel11021811513D
libRbt.so/2013.1/901 2013/11/27
 49 52  0  0  0  0  0  0  0  0999 V2000
   23.9572   14.0817   11.2540 C   0  0  2  0  0  0  0  0  0  0  0  0
   24.3801   13.4598   10.0766 O   0  0  0  0  0  0  0  0  0  0  0  0
   22.8443   15.1443   10.9230 C   0  0  2  0  0  0  0  0  0  0  0  0
   21.6764   14.4474   10.2427 N   0  0  0  0  0  0  0  0  0  0  0  0
   26.5484    7.6601   13.1272 O   0  0  0  0  0  0  0  0  0  0  0  0
   23.4227   16.2718   10.0364 C   0  0  2  0  0  0  0  0  0  0  0  0
   29.8613    4.0296   11.5896 N   0  0  0  0  0  0  0  0  0  0  0  0
   24.6129   16.9471   10.7357 C   0  0  2  0  0  0  0  0  0  0  0  0
   25.7570   15.9046   11.0877 C   0  0  2  0  0  0  0  0  0  0  0  0
   25.1284   14.7837   11.9176 O   0  0  0  0  0  0  0  0  0  0  0  0
   26.9338   16.5852   11.8449 C   0  0  0  0  0  0  0  0  0  0  0  0
   26.5945   17.0333   13.1480 N   0  0  0  0  0  0  0  0  0  0  0  0
   26.0359    9.5546   10.9772 C   0  0  2  0  0  0  0  0  0  0  0  0
   26.6798    8.2259   10.7607 N   0  0  0  0  0  0  0  0  0  0  0  0
   24.9101    9.7207    9.8452 C   0  0  0  0  0  0  0  0  0  0  0  0
   24.1592   11.0939   10.0153 C   0  0  2  0  0  0  0  0  0  0  0  0
   23.1384   11.2669    8.9713 N   0  0  0  0  0  0  0  0  0  0  0  0
   25.1574   12.2644    9.9132 C   0  0  2  0  0  0  0  0  0  0  0  0
   26.2850   12.1286   11.0146 C   0  0  2  0  0  0  0  0  0  0  0  0
   27.1777   13.2912   10.8387 O   0  0  0  0  0  0  0  0  0  0  0  0
   27.0809   10.7458   10.7781 C   0  0  1  0  0  0  0  0  0  0  0  0
   28.0726   10.6488   11.7511 O   0  0  0  0  0  0  0  0  0  0  0  0
   27.4693   13.8856    9.7321 C   0  0  1  0  0  0  0  0  0  0  0  0
   28.9460   14.3582    9.5882 C   0  0  2  0  0  0  0  0  0  0  0  0
   29.0313   15.6634   10.0670 O   0  0  0  0  0  0  0  0  0  0  0  0
   29.0494   14.3100    8.1203 C   0  0  1  0  0  0  0  0  0  0  0  0
   28.2772   13.0503    7.6197 C   0  0  2  0  0  0  0  0  0  0  0  0
   27.2005   13.1032    8.5233 O   0  0  0  0  0  0  0  0  0  0  0  0
   29.0433   11.7318    7.5031 C   0  0  0  0  0  0  0  0  0  0  0  0
   29.4609   11.3989    8.8136 O   0  0  0  0  0  0  0  0  0  0  0  0
   27.3755   15.5122    6.7875 C   0  0  2  0  0  0  0  0  0  0  0  0
   28.4608   15.5911    7.6116 O   0  0  0  0  0  0  0  0  0  0  0  0
   27.1521   16.7850    6.0251 C   0  0  1  0  0  0  0  0  0  0  0  0
   22.1974   14.9284    6.8534 N   0  0  0  0  0  0  0  0  0  0  0  0
   26.7551    5.2612   10.6366 O   0  0  0  0  0  0  0  0  0  0  0  0
   25.8571   16.6413    5.1350 C   0  0  2  0  0  0  0  0  0  0  0  0
   24.5690   16.2773    5.9518 C   0  0  1  0  0  0  0  0  0  0  0  0
   24.8046   15.0457    6.6680 C   0  0  1  0  0  0  0  0  0  0  0  0
   26.0462   15.1576    7.5323 O   0  0  0  0  0  0  0  0  0  0  0  0
   23.5356   14.6598    7.5477 C   0  0  0  0  0  0  0  0  0  0  0  0
   26.9507   17.8548    6.9203 N   0  0  0  0  0  0  0  0  0  0  0  0
   22.6081   17.0500    9.8442 O   0  0  0  0  0  0  0  0  0  0  0  0
   28.7549    6.2611   11.0376 C   0  0  0  0  0  0  0  0  0  0  0  0
   24.3727   17.1165    6.7099 O   0  0  0  0  0  0  0  0  0  0  0  0
   26.0291   15.7833    4.3884 O   0  0  0  0  0  0  0  0  0  0  0  0
   26.8799    7.3630   11.9707 C   0  0  0  0  0  0  0  0  0  0  0  0
   29.4092    5.0832   10.7539 C   0  0  0  0  0  0  0  0  0  0  0  0
   27.5732    5.9584   11.5736 C   0  0  1  0  0  0  0  0  0  0  0  0
   24.1862   17.5497   11.9324 F   0  0  0  0  0  0  0  0  0  0  0  0
  1  2  1  6  0  0  0
  1 10  1  0  0  0  0
  1  3  1  0  0  0  0
  3  4  1  6  0  0  0
  3  6  1  0  0  0  0
  5 46  2  0  0  0  0
  6 42  1  1  0  0  0
  6  8  1  0  0  0  0
  7 47  1  0  0  0  0
  8  9  1  0  0  0  0
  8 49  1  1  0  0  0
  9 10  1  0  0  0  0
  9 11  1  1  0  0  0
 11 12  1  0  0  0  0
 13 14  1  6  0  0  0
 13 15  1  0  0  0  0
 13 21  1  0  0  0  0
 14 46  1  0  0  0  0
 15 16  1  0  0  0  0
 16 17  1  6  0  0  0
 16 18  1  0  0  0  0
 18  2  1  1  0  0  0
 18 19  1  0  0  0  0
 19 20  1  6  0  0  0
 19 21  1  0  0  0  0
 21 22  1  1  0  0  0
 23 20  1  1  0  0  0
 23 24  1  0  0  0  0
 23 28  1  0  0  0  0
 24 25  1  6  0  0  0
 24 26  1  0  0  0  0
 26 27  1  0  0  0  0
 26 32  1  6  0  0  0
 27 28  1  0  0  0  0
 27 29  1  1  0  0  0
 29 30  1  0  0  0  0
 31 32  1  1  0  0  0
 31 33  1  0  0  0  0
 31 39  1  0  0  0  0
 33 36  1  0  0  0  0
 33 41  1  1  0  0  0
 34 40  1  0  0  0  0
 35 48  1  0  0  0  0
 36 37  1  0  0  0  0
 36 45  1  6  0  0  0
 37 38  1  0  0  0  0
 37 44  1  1  0  0  0
 38 39  1  0  0  0  0
 38 40  1  1  0  0  0
 43 47  1  0  0  0  0
 46 48  1  0  0  0  0
 48 43  1  6  0  0  0
M  END
>  <CHROM.1>
-165.90389872,83.32687269,67.63921108,-133.76002433,-32.75525614,-141.41264245
-119.36033837,62.88476369,-162.27722447,39.76069400,-62.36511453,-63.88196825
119.75679127,26.17377926,13.07055428,9.53965571,1.92933863,0.72383813,-0.53858547

>  <Name>
ligand

>  <RI>
0

>  <Rbt.Current_Directory>
/home/itssahil/PROJECTS/Mol_Feturizer/New_Systems/rnas/4PDQ

>  <Rbt.Executable>
rbdock ($Id: //depot/dev/client3/rdock/2013.1/src/exe/rbdock.cxx#4 $)

>  <Rbt.Library>
libRbt.so (2013.1, Build901 2013/11/27)

>  <Rbt.Parameter_File>
/export/apps/rDock/src/rDock_2013.1_src/data/scripts/dock_solv.prm

>  <Rbt.Receptor>
prm/blind_docking_100.prm

>  <SCORE>
7.17752

>  <SCORE.INTER>
0.35848

>  <SCORE.INTER.CONST>
1

>  <SCORE.INTER.POLAR>
0

>  <SCORE.INTER.ROT>
13

>  <SCORE.INTER.SOLV>
31.4271

>  <SCORE.INTER.VDW>
-22.5034

>  <SCORE.INTER.norm>
0.00731592

>  <SCORE.INTRA>
2.79311

>  <SCORE.INTRA.DIHEDRAL>
-10.7833

>  <SCORE.INTRA.DIHEDRAL.0>
34.5115

>  <SCORE.INTRA.POLAR>
0

>  <SCORE.INTRA.POLAR.0>
0

>  <SCORE.INTRA.REPUL>
0.398432

>  <SCORE.INTRA.REPUL.0>
0

>  <SCORE.INTRA.SOLV>
7.37946

>  <SCORE.INTRA.SOLV.lig_0>
-122.812

>  <SCORE.INTRA.VDW>
2.50288

>  <SCORE.INTRA.VDW.0>
-7.46208

>  <SCORE.INTRA.norm>
0.0570023

>  <SCORE.RESTR>
4.02593

>  <SCORE.RESTR.CAVITY>
4.02593

>  <SCORE.RESTR.norm>
0.0821618

>  <SCORE.SYSTEM>
0

>  <SCORE.SYSTEM.CONST>
0

>  <SCORE.SYSTEM.DIHEDRAL>
0

>  <SCORE.SYSTEM.SOLV>
0

>  <SCORE.SYSTEM.norm>
0

>  <SCORE.heavy>
49

>  <SCORE.norm>
0.14648

>  <RMSD>
10.609

$$$$
ligand
 OpenBabel11021811513D
libRbt.so/2013.1/901 2013/11/27
 49 52  0  0  0  0  0  0  0  0999 V2000
   24.5233   16.7582    7.8819 C   0  0  2  0  0  0  0  0  0  0  0  0
   25.0838   15.5398    7.4903 O   0  0  0  0  0  0  0  0  0  0  0  0
   22.9534   16.6651    7.8185 C   0  0  2  0  0  0  0  0  0  0  0  0
   22.4830   15.5464    8.7348 N   0  0  0  0  0  0  0  0  0  0  0  0
   27.7017   11.2142   10.2002 O   0  0  0  0  0  0  0  0  0  0  0  0
   22.4858   16.4360    6.3622 C   0  0  2  0  0  0  0  0  0  0  0  0
   25.6621   10.1454   13.5866 N   0  0  0  0  0  0  0  0  0  0  0  0
   22.9895   17.5675    5.4526 C   0  0  2  0  0  0  0  0  0  0  0  0
   24.5714   17.6936    5.4918 C   0  0  2  0  0  0  0  0  0  0  0  0
   24.9902   17.8647    6.9532 O   0  0  0  0  0  0  0  0  0  0  0  0
   25.0700   18.8764    4.6122 C   0  0  0  0  0  0  0  0  0  0  0  0
   24.3203   20.0700    4.7778 N   0  0  0  0  0  0  0  0  0  0  0  0
   24.9003   11.7854    9.6521 C   0  0  2  0  0  0  0  0  0  0  0  0
   25.3633   10.5422   10.3356 N   0  0  0  0  0  0  0  0  0  0  0  0
   25.7105   11.8910    8.2705 C   0  0  0  0  0  0  0  0  0  0  0  0
   25.2632   13.1697    7.4685 C   0  0  2  0  0  0  0  0  0  0  0  0
   26.0131   13.2887    6.2094 N   0  0  0  0  0  0  0  0  0  0  0  0
   25.5179   14.4402    8.3040 C   0  0  2  0  0  0  0  0  0  0  0  0
   24.7356   14.3663    9.6771 C   0  0  2  0  0  0  0  0  0  0  0  0
   25.0367   15.6217   10.3931 O   0  0  0  0  0  0  0  0  0  0  0  0
   25.2587   13.0860   10.5069 C   0  0  1  0  0  0  0  0  0  0  0  0
   24.5648   13.0431   11.7136 O   0  0  0  0  0  0  0  0  0  0  0  0
   25.7904   15.7624   11.4299 C   0  0  1  0  0  0  0  0  0  0  0  0
   27.3011   16.0027   11.1389 C   0  0  2  0  0  0  0  0  0  0  0  0
   27.9378   14.7644   11.1054 O   0  0  0  0  0  0  0  0  0  0  0  0
   27.6418   16.7561   12.3573 C   0  0  1  0  0  0  0  0  0  0  0  0
   26.4524   17.7100   12.6873 C   0  0  2  0  0  0  0  0  0  0  0  0
   25.3995   16.8474   12.3330 O   0  0  0  0  0  0  0  0  0  0  0  0
   26.4591   19.1120   12.0763 C   0  0  0  0  0  0  0  0  0  0  0  0
   25.8090   19.0016   10.8242 O   0  0  0  0  0  0  0  0  0  0  0  0
   28.1273   16.1908   14.6957 C   0  0  2  0  0  0  0  0  0  0  0  0
   27.8844   15.7387   13.4307 O   0  0  0  0  0  0  0  0  0  0  0  0
   28.5860   15.0924   15.6091 C   0  0  1  0  0  0  0  0  0  0  0  0
   25.8394   18.4767   18.7973 N   0  0  0  0  0  0  0  0  0  0  0  0
   28.0309    8.2016   10.4881 O   0  0  0  0  0  0  0  0  0  0  0  0
   28.7979   15.6735   17.0608 C   0  0  2  0  0  0  0  0  0  0  0  0
   27.5208   16.3617   17.6559 C   0  0  1  0  0  0  0  0  0  0  0  0
   27.1047   17.4199   16.7656 C   0  0  1  0  0  0  0  0  0  0  0  0
   26.8943   16.8867   15.3611 O   0  0  0  0  0  0  0  0  0  0  0  0
   25.7825   18.1195   17.3093 C   0  0  0  0  0  0  0  0  0  0  0  0
   27.6050   14.0832   15.6811 N   0  0  0  0  0  0  0  0  0  0  0  0
   21.3433   16.4128    6.3368 O   0  0  0  0  0  0  0  0  0  0  0  0
   27.7939    9.3425   12.4380 C   0  0  0  0  0  0  0  0  0  0  0  0
   26.6841   15.5784   17.7187 O   0  0  0  0  0  0  0  0  0  0  0  0
   29.6149   16.4815   17.0075 O   0  0  0  0  0  0  0  0  0  0  0  0
   26.8409   10.3911   10.5424 C   0  0  0  0  0  0  0  0  0  0  0  0
   26.8479    9.3808   13.4378 C   0  0  0  0  0  0  0  0  0  0  0  0
   27.1818    9.0067   11.3031 C   0  0  1  0  0  0  0  0  0  0  0  0
   22.4420   18.7947    5.8668 F   0  0  0  0  0  0  0  0  0  0  0  0
  1  2  1  6  0  0  0
  1 10  1  0  0  0  0
  1  3  1  0  0  0  0
  3  4  1  1  0  0  0
  3  6  1  0  0  0  0
  5 46  2  0  0  0  0
  6 42  1  1  0  0  0
  6  8  1  0  0  0  0
  7 47  1  0  0  0  0
  8  9  1  0  0  0  0
  8 49  1  1  0  0  0
  9 10  1  0  0  0  0
  9 11  1  6  0  0  0
 11 12  1  0  0  0  0
 13 14  1  1  0  0  0
 13 15  1  0  0  0  0
 13 21  1  0  0  0  0
 14 46  1  0  0  0  0
 15 16  1  0  0  0  0
 16 17  1  6  0  0  0
 16 18  1  0  0  0  0
 18  2  1  6  0  0  0
 18 19  1  0  0  0  0
 19 20  1  1  0  0  0
 19 21  1  0  0  0  0
 21 22  1  1  0  0  0
 23 20  1  6  0  0  0
 23 24  1  0  0  0  0
 23 28  1  0  0  0  0
 24 25  1  1  0  0  0
 24 26  1  0  0  0  0
 26 27  1  0  0  0  0
 26 32  1  1  0  0  0
 27 28  1  0  0  0  0
 27 29  1  6  0  0  0
 29 30  1  0  0  0  0
 31 32  1  6  0  0  0
 31 33  1  0  0  0  0
 31 39  1  0  0  0  0
 33 36  1  0  0  0  0
 33 41  1  1  0  0  0
 34 40  1  0  0  0  0
 35 48  1  0  0  0  0
 36 37  1  0  0  0  0
 36 45  1  6  0  0  0
 37 38  1  0  0  0  0
 37 44  1  6  0  0  0
 38 39  1  0  0  0  0
 38 40  1  1  0  0  0
 43 47  1  0  0  0  0
 46 48  1  0  0  0  0
 48 43  1  1  0  0  0
M  END
>  <CHROM.1>
-95.22114489,147.76263388,44.76091154,53.73119061,-107.84516764,88.20282399
-175.42418163,88.84801413,-170.00285209,47.35715040,-59.05915543,-145.19086924
-60.62373587,25.88177449,15.12248686,11.07398943,2.86171250,1.19622178,-2.67508326

>  <Name>
ligand

>  <RI>
0

>  <Rbt.Current_Directory>
/home/itssahil/PROJECTS/Mol_Feturizer/New_Systems/rnas/4PDQ

>  <Rbt.Executable>
rbdock ($Id: //depot/dev/client3/rdock/2013.1/src/exe/rbdock.cxx#4 $)

>  <Rbt.Library>
libRbt.so (2013.1, Build901 2013/11/27)

>  <Rbt.Parameter_File>
/export/apps/rDock/src/rDock_2013.1_src/data/scripts/dock_solv.prm

>  <Rbt.Receptor>
prm/blind_docking_40.prm

>  <SCORE>
11.6007

>  <SCORE.INTER>
1.88295

>  <SCORE.INTER.CONST>
1

>  <SCORE.INTER.POLAR>
0

>  <SCORE.INTER.ROT>
13

>  <SCORE.INTER.SOLV>
27.9363

>  <SCORE.INTER.VDW>
-20.3235

>  <SCORE.INTER.norm>
0.0384276

>  <SCORE.INTRA>
4.38476

>  <SCORE.INTRA.DIHEDRAL>
-6.02401

>  <SCORE.INTRA.DIHEDRAL.0>
34.5115

>  <SCORE.INTRA.POLAR>
0

>  <SCORE.INTRA.POLAR.0>
0

>  <SCORE.INTRA.REPUL>
0.307546

>  <SCORE.INTRA.REPUL.0>
0

>  <SCORE.INTRA.SOLV>
4.82034

>  <SCORE.INTRA.SOLV.lig_0>
-122.812

>  <SCORE.INTRA.VDW>
3.44886

>  <SCORE.INTRA.VDW.0>
-7.46208

>  <SCORE.INTRA.norm>
0.0894849

>  <SCORE.RESTR>
5.333

>  <SCORE.RESTR.CAVITY>
5.333

>  <SCORE.RESTR.norm>
0.108837

>  <SCORE.SYSTEM>
0

>  <SCORE.SYSTEM.CONST>
0

>  <SCORE.SYSTEM.DIHEDRAL>
0

>  <SCORE.SYSTEM.SOLV>
0

>  <SCORE.SYSTEM.norm>
0

>  <SCORE.heavy>
49

>  <SCORE.norm>
0.236749

>  <RMSD>
10.613

$$$$
ligand
 OpenBabel11021811513D
libRbt.so/2013.1/901 2013/11/27
 49 52  0  0  0  0  0  0  0  0999 V2000
   24.9229   16.0023    5.9714 C   0  0  2  0  0  0  0  0  0  0  0  0
   25.5747   15.9879    7.2071 O   0  0  0  0  0  0  0  0  0  0  0  0
   25.0984   17.4127    5.2951 C   0  0  2  0  0  0  0  0  0  0  0  0
   26.5812   17.6983    5.1155 N   0  0  0  0  0  0  0  0  0  0  0  0
   26.9677   12.1832   11.2713 O   0  0  0  0  0  0  0  0  0  0  0  0
   24.4119   18.5070    6.1453 C   0  0  2  0  0  0  0  0  0  0  0  0
   25.8605    9.8138   14.5655 N   0  0  0  0  0  0  0  0  0  0  0  0
   22.9203   18.1864    6.3294 C   0  0  2  0  0  0  0  0  0  0  0  0
   22.7030   16.7681    7.0083 C   0  0  2  0  0  0  0  0  0  0  0  0
   23.4423   15.7281    6.1644 O   0  0  0  0  0  0  0  0  0  0  0  0
   21.1906   16.4262    7.1407 C   0  0  0  0  0  0  0  0  0  0  0  0
   20.4770   16.4987    5.9162 N   0  0  0  0  0  0  0  0  0  0  0  0
   25.5666   11.9287    8.7322 C   0  0  2  0  0  0  0  0  0  0  0  0
   25.8836   10.7657    9.6119 N   0  0  0  0  0  0  0  0  0  0  0  0
   26.9512   12.6852    8.4371 C   0  0  0  0  0  0  0  0  0  0  0  0
   26.7111   13.9194    7.4897 C   0  0  2  0  0  0  0  0  0  0  0  0
   27.9697   14.6330    7.2281 N   0  0  0  0  0  0  0  0  0  0  0  0
   25.7221   14.9073    8.1400 C   0  0  2  0  0  0  0  0  0  0  0  0
   24.3456   14.1909    8.4484 C   0  0  2  0  0  0  0  0  0  0  0  0
   23.4734   15.2147    9.0570 O   0  0  0  0  0  0  0  0  0  0  0  0
   24.6099   12.9723    9.4714 C   0  0  1  0  0  0  0  0  0  0  0  0
   23.3871   12.3604    9.7361 O   0  0  0  0  0  0  0  0  0  0  0  0
   23.7215   15.9215   10.1066 C   0  0  1  0  0  0  0  0  0  0  0  0
   24.8929   16.9387    9.9743 C   0  0  2  0  0  0  0  0  0  0  0  0
   26.0644   16.3053   10.3821 O   0  0  0  0  0  0  0  0  0  0  0  0
   24.4369   17.9280   10.9651 C   0  0  1  0  0  0  0  0  0  0  0  0
   22.8876   18.0608   10.8417 C   0  0  2  0  0  0  0  0  0  0  0  0
   22.5889   16.7074   10.6018 O   0  0  0  0  0  0  0  0  0  0  0  0
   22.3262   19.0964    9.8663 C   0  0  0  0  0  0  0  0  0  0  0  0
   23.4113   19.9302    9.5056 O   0  0  0  0  0  0  0  0  0  0  0  0
   25.8909   18.0660   12.9375 C   0  0  2  0  0  0  0  0  0  0  0  0
   24.8702   17.4162   12.3054 O   0  0  0  0  0  0  0  0  0  0  0  0
   27.2061   17.8581   12.2459 C   0  0  1  0  0  0  0  0  0  0  0  0
   25.8485   17.7414   17.3667 N   0  0  0  0  0  0  0  0  0  0  0  0
   27.5167    8.7352   10.9111 O   0  0  0  0  0  0  0  0  0  0  0  0
   28.3447   18.5916   13.0557 C   0  0  2  0  0  0  0  0  0  0  0  0
   28.4508   18.1306   14.5507 C   0  0  1  0  0  0  0  0  0  0  0  0
   27.1779   18.3493   15.1967 C   0  0  1  0  0  0  0  0  0  0  0  0
   26.0647   17.6536   14.4365 O   0  0  0  0  0  0  0  0  0  0  0  0
   27.2265   17.8535   16.7083 C   0  0  0  0  0  0  0  0  0  0  0  0
   27.5166   16.4840   12.2023 N   0  0  0  0  0  0  0  0  0  0  0  0
   24.5178   19.5133    5.6139 O   0  0  0  0  0  0  0  0  0  0  0  0
   27.6487   10.0470   12.7609 C   0  0  0  0  0  0  0  0  0  0  0  0
   28.6877   17.0075   14.5666 O   0  0  0  0  0  0  0  0  0  0  0  0
   28.1044   19.7164   13.0724 O   0  0  0  0  0  0  0  0  0  0  0  0
   26.6148   11.0588   10.8880 C   0  0  0  0  0  0  0  0  0  0  0  0
   26.8361   10.4839   13.7831 C   0  0  0  0  0  0  0  0  0  0  0  0
   26.8722    9.7058   11.7333 C   0  0  1  0  0  0  0  0  0  0  0  0
   22.2745   18.1776    5.0804 F   0  0  0  0  0  0  0  0  0  0  0  0
  1  2  1  1  0  0  0
  1 10  1  0  0  0  0
  1  3  1  0  0  0  0
  3  4  1  1  0  0  0
  3  6  1  0  0  0  0
  5 46  2  0  0  0  0
  6 42  1  6  0  0  0
  6  8  1  0  0  0  0
  7 47  1  0  0  0  0
  8  9  1  0  0  0  0
  8 49  1  6  0  0  0
  9 10  1  0  0  0  0
  9 11  1  6  0  0  0
 11 12  1  0  0  0  0
 13 14  1  1  0  0  0
 13 15  1  0  0  0  0
 13 21  1  0  0  0  0
 14 46  1  0  0  0  0
 15 16  1  0  0  0  0
 16 17  1  1  0  0  0
 16 18  1  0  0  0  0
 18  2  1  6  0  0  0
 18 19  1  0  0  0  0
 19 20  1  1  0  0  0
 19 21  1  0  0  0  0
 21 22  1  6  0  0  0
 23 20  1  6  0  0  0
 23 24  1  0  0  0  0
 23 28  1  0  0  0  0
 24 25  1  1  0  0  0
 24 26  1  0  0  0  0
 26 27  1  0  0  0  0
 26 32  1  1  0  0  0
 27 28  1  0  0  0  0
 27 29  1  6  0  0  0
 29 30  1  0  0  0  0
 31 32  1  6  0  0  0
 31 33  1  0  0  0  0
 31 39  1  0  0  0  0
 33 36  1  0  0  0  0
 33 41  1  1  0  0  0
 34 40  1  0  0  0  0
 35 48  1  0  0  0  0
 36 37  1  0  0  0  0
 36 45  1  1  0  0  0
 37 38  1  0  0  0  0
 37 44  1  6  0  0  0
 38 39  1  0  0  0  0
 38 40  1  1  0  0  0
 43 47  1  0  0  0  0
 46 48  1  0  0  0  0
 48 43  1  1  0  0  0
M  END
>  <CHROM.1>
-177.35908277,71.23617817,54.56136582,55.02636465,-56.25863543,66.44493053
108.39401979,-13.20861274,-69.46300009,-166.42552492,64.77105882,-154.26656447
-127.69063588,25.33633603,15.70872679,10.10721356,3.12018948,-1.13644073
0.38656468

>  <Name>
ligand

>  <RI>
0

>  <Rbt.Current_Directory>
/home/itssahil/PROJECTS/Mol_Feturizer/New_Systems/rnas/4PDQ

>  <Rbt.Executable>
rbdock ($Id: //depot/dev/client3/rdock/2013.1/src/exe/rbdock.cxx#4 $)

>  <Rbt.Library>
libRbt.so (2013.1, Build901 2013/11/27)

>  <Rbt.Parameter_File>
/export/apps/rDock/src/rDock_2013.1_src/data/scripts/dock_solv.prm

>  <Rbt.Receptor>
prm/blind_docking_40.prm

>  <SCORE>
1.27051

>  <SCORE.INTER>
-0.121663

>  <SCORE.INTER.CONST>
1

>  <SCORE.INTER.POLAR>
0

>  <SCORE.INTER.ROT>
13

>  <SCORE.INTER.SOLV>
33.3337

>  <SCORE.INTER.VDW>
-23.459

>  <SCORE.INTER.norm>
-0.00248291

>  <SCORE.INTRA>
-0.619547

>  <SCORE.INTRA.DIHEDRAL>
-18.2061

>  <SCORE.INTRA.DIHEDRAL.0>
34.5115

>  <SCORE.INTRA.POLAR>
0

>  <SCORE.INTRA.POLAR.0>
0

>  <SCORE.INTRA.REPUL>
0.0432345

>  <SCORE.INTRA.REPUL.0>
0

>  <SCORE.INTRA.SOLV>
2.77597

>  <SCORE.INTRA.SOLV.lig_0>
-122.812

>  <SCORE.INTRA.VDW>
6.87936

>  <SCORE.INTRA.VDW.0>
-7.46208

>  <SCORE.INTRA.norm>
-0.0126438

>  <SCORE.RESTR>
2.01172

>  <SCORE.RESTR.CAVITY>
2.01172

>  <SCORE.RESTR.norm>
0.0410556

>  <SCORE.SYSTEM>
0

>  <SCORE.SYSTEM.CONST>
0

>  <SCORE.SYSTEM.DIHEDRAL>
0

>  <SCORE.SYSTEM.SOLV>
0

>  <SCORE.SYSTEM.norm>
0

>  <SCORE.heavy>
49

>  <SCORE.norm>
0.0259288

>  <RMSD>
10.618

$$$$
ligand
 OpenBabel11021811513D
libRbt.so/2013.1/901 2013/11/27
 49 52  0  0  0  0  0  0  0  0999 V2000
   24.3564   13.4464   11.2601 C   0  0  2  0  0  0  0  0  0  0  0  0
   24.8748   12.8335   10.1165 O   0  0  0  0  0  0  0  0  0  0  0  0
   23.0961   14.3073   10.8760 C   0  0  2  0  0  0  0  0  0  0  0  0
   22.0513   13.4047   10.2387 N   0  0  0  0  0  0  0  0  0  0  0  0
   28.1690    7.7889   13.4310 O   0  0  0  0  0  0  0  0  0  0  0  0
   23.4999   15.4602    9.9276 C   0  0  2  0  0  0  0  0  0  0  0  0
   28.2162    4.0214    8.9365 N   0  0  0  0  0  0  0  0  0  0  0  0
   24.5699   16.3460   10.5851 C   0  0  2  0  0  0  0  0  0  0  0  0
   25.8579   15.5107   10.9889 C   0  0  2  0  0  0  0  0  0  0  0  0
   25.4037   14.3536   11.8805 O   0  0  0  0  0  0  0  0  0  0  0  0
   26.9136   16.4028   11.7039 C   0  0  0  0  0  0  0  0  0  0  0  0
   26.5181   16.8351   12.9964 N   0  0  0  0  0  0  0  0  0  0  0  0
   26.6948    9.0715   11.2731 C   0  0  2  0  0  0  0  0  0  0  0  0
   27.3365    7.7307   11.1415 N   0  0  0  0  0  0  0  0  0  0  0  0
   25.4481    9.0965   10.2624 C   0  0  0  0  0  0  0  0  0  0  0  0
   24.6942   10.4754   10.3550 C   0  0  2  0  0  0  0  0  0  0  0  0
   23.5614   10.5183    9.4186 N   0  0  0  0  0  0  0  0  0  0  0  0
   25.6523   11.6322   10.0071 C   0  0  2  0  0  0  0  0  0  0  0  0
   26.8968   11.6336   10.9839 C   0  0  2  0  0  0  0  0  0  0  0  0
   27.7420   12.7731   10.5758 O   0  0  0  0  0  0  0  0  0  0  0  0
   27.6883   10.2377   10.8218 C   0  0  1  0  0  0  0  0  0  0  0  0
   28.7829   10.2618   11.6826 O   0  0  0  0  0  0  0  0  0  0  0  0
   27.5215   13.5955    9.6073 C   0  0  1  0  0  0  0  0  0  0  0  0
   28.7881   14.2068    8.9390 C   0  0  2  0  0  0  0  0  0  0  0  0
   29.0947   15.3948    9.5982 O   0  0  0  0  0  0  0  0  0  0  0  0
   28.2300   14.4570    7.5996 C   0  0  1  0  0  0  0  0  0  0  0  0
   27.2987   13.2614    7.2301 C   0  0  2  0  0  0  0  0  0  0  0  0
   26.7344   13.0469    8.5005 O   0  0  0  0  0  0  0  0  0  0  0  0
   27.9155   12.0590    6.5140 C   0  0  0  0  0  0  0  0  0  0  0  0
   28.2554   12.5035    5.2141 O   0  0  0  0  0  0  0  0  0  0  0  0
   26.1521   15.7530    7.4375 C   0  0  2  0  0  0  0  0  0  0  0  0
   27.4949   15.7604    7.6835 O   0  0  0  0  0  0  0  0  0  0  0  0
   25.8386   15.3381    6.0302 C   0  0  1  0  0  0  0  0  0  0  0  0
   23.9139   19.2263    9.0870 N   0  0  0  0  0  0  0  0  0  0  0  0
   28.7943    5.0079   13.2653 O   0  0  0  0  0  0  0  0  0  0  0  0
   24.2786   15.4012    5.8013 C   0  0  2  0  0  0  0  0  0  0  0  0
   23.6564   16.8110    6.0915 C   0  0  1  0  0  0  0  0  0  0  0  0
   23.9626   17.1837    7.4527 C   0  0  1  0  0  0  0  0  0  0  0  0
   25.4585   17.1306    7.6991 O   0  0  0  0  0  0  0  0  0  0  0  0
   23.3864   18.6311    7.7784 C   0  0  0  0  0  0  0  0  0  0  0  0
   26.4502   16.2220    5.1187 N   0  0  0  0  0  0  0  0  0  0  0  0
   22.5770   16.0936    9.6965 O   0  0  0  0  0  0  0  0  0  0  0  0
   27.8591    5.1435   11.1996 C   0  0  0  0  0  0  0  0  0  0  0  0
   24.1384   17.5721    5.3803 O   0  0  0  0  0  0  0  0  0  0  0  0
   23.7797   14.6631    6.5290 O   0  0  0  0  0  0  0  0  0  0  0  0
   28.0648    7.2055   12.3426 C   0  0  0  0  0  0  0  0  0  0  0  0
   28.5913    4.7194   10.1134 C   0  0  0  0  0  0  0  0  0  0  0  0
   28.6910    5.7450   12.0490 C   0  0  1  0  0  0  0  0  0  0  0  0
   24.0507   16.9403   11.7489 F   0  0  0  0  0  0  0  0  0  0  0  0
  1  2  1  6  0  0  0
  1 10  1  0  0  0  0
  1  3  1  0  0  0  0
  3  4  1  6  0  0  0
  3  6  1  0  0  0  0
  5 46  2  0  0  0  0
  6 42  1  1  0  0  0
  6  8  1  0  0  0  0
  7 47  1  0  0  0  0
  8  9  1  0  0  0  0
  8 49  1  1  0  0  0
  9 10  1  0  0  0  0
  9 11  1  1  0  0  0
 11 12  1  0  0  0  0
 13 14  1  6  0  0  0
 13 15  1  0  0  0  0
 13 21  1  0  0  0  0
 14 46  1  0  0  0  0
 15 16  1  0  0  0  0
 16 17  1  6  0  0  0
 16 18  1  0  0  0  0
 18  2  1  1  0  0  0
 18 19  1  0  0  0  0
 19 20  1  6  0  0  0
 19 21  1  0  0  0  0
 21 22  1  1  0  0  0
 23 20  1  1  0  0  0
 23 24  1  0  0  0  0
 23 28  1  0  0  0  0
 24 25  1  1  0  0  0
 24 26  1  0  0  0  0
 26 27  1  0  0  0  0
 26 32  1  1  0  0  0
 27 28  1  0  0  0  0
 27 29  1  1  0  0  0
 29 30  1  0  0  0  0
 31 32  1  6  0  0  0
 31 33  1  0  0  0  0
 31 39  1  0  0  0  0
 33 36  1  0  0  0  0
 33 41  1  6  0  0  0
 34 40  1  0  0  0  0
 35 48  1  0  0  0  0
 36 37  1  0  0  0  0
 36 45  1  1  0  0  0
 37 38  1  0  0  0  0
 37 44  1  6  0  0  0
 38 39  1  0  0  0  0
 38 40  1  6  0  0  0
 43 47  1  0  0  0  0
 46 48  1  0  0  0  0
 48 43  1  6  0  0  0
M  END
>  <CHROM.1>
-154.67070120,69.69037110,69.18708212,-152.24835560,-0.74819616,-150.51583047
-118.42639773,-69.31225130,-63.42603640,-167.74124074,179.33735925,-114.24907922
26.76408676,26.10517393,12.96352122,9.50299700,2.28873567,1.10281511,-0.97554079

>  <Name>
ligand

>  <RI>
0

>  <Rbt.Current_Directory>
/home/itssahil/PROJECTS/Mol_Feturizer/New_Systems/rnas/4PDQ

>  <Rbt.Executable>
rbdock ($Id: //depot/dev/client3/rdock/2013.1/src/exe/rbdock.cxx#4 $)

>  <Rbt.Library>
libRbt.so (2013.1, Build901 2013/11/27)

>  <Rbt.Parameter_File>
/export/apps/rDock/src/rDock_2013.1_src/data/scripts/dock_solv.prm

>  <Rbt.Receptor>
prm/blind_docking_60.prm

>  <SCORE>
13.9011

>  <SCORE.INTER>
2.48526

>  <SCORE.INTER.CONST>
1

>  <SCORE.INTER.POLAR>
0

>  <SCORE.INTER.ROT>
13

>  <SCORE.INTER.SOLV>
26.4196

>  <SCORE.INTER.VDW>
-19.4164

>  <SCORE.INTER.norm>
0.0507197

>  <SCORE.INTRA>
9.72604

>  <SCORE.INTRA.DIHEDRAL>
-5.17724

>  <SCORE.INTRA.DIHEDRAL.0>
34.5115

>  <SCORE.INTRA.POLAR>
0

>  <SCORE.INTRA.POLAR.0>
0

>  <SCORE.INTRA.REPUL>
0.136356

>  <SCORE.INTRA.REPUL.0>
0

>  <SCORE.INTRA.SOLV>
4.81059

>  <SCORE.INTRA.SOLV.lig_0>
-122.812

>  <SCORE.INTRA.VDW>
9.22759

>  <SCORE.INTRA.VDW.0>
-7.46208

>  <SCORE.INTRA.norm>
0.198491

>  <SCORE.RESTR>
1.6898

>  <SCORE.RESTR.CAVITY>
1.6898

>  <SCORE.RESTR.norm>
0.0344858

>  <SCORE.SYSTEM>
0

>  <SCORE.SYSTEM.CONST>
0

>  <SCORE.SYSTEM.DIHEDRAL>
0

>  <SCORE.SYSTEM.SOLV>
0

>  <SCORE.SYSTEM.norm>
0

>  <SCORE.heavy>
49

>  <SCORE.norm>
0.283696

>  <RMSD>
10.624

$$$$
ligand
 OpenBabel11021811513D
libRbt.so/2013.1/901 2013/11/27
 49 52  0  0  0  0  0  0  0  0999 V2000
   25.5154   19.2495    8.7568 C   0  0  2  0  0  0  0  0  0  0  0  0
   24.8142   18.6375    9.7988 O   0  0  0  0  0  0  0  0  0  0  0  0
   25.0589   20.7495    8.6189 C   0  0  2  0  0  0  0  0  0  0  0  0
   25.3208   21.4728    9.9306 N   0  0  0  0  0  0  0  0  0  0  0  0
   25.0677   13.5304   12.4989 O   0  0  0  0  0  0  0  0  0  0  0  0
   23.5661   20.8239    8.2217 C   0  0  2  0  0  0  0  0  0  0  0  0
   26.8587    9.5577   11.2384 N   0  0  0  0  0  0  0  0  0  0  0  0
   23.3231   20.0698    6.9049 C   0  0  2  0  0  0  0  0  0  0  0  0
   23.7738   18.5511    7.0050 C   0  0  2  0  0  0  0  0  0  0  0  0
   25.2369   18.5266    7.4512 O   0  0  0  0  0  0  0  0  0  0  0  0
   23.5765   17.8085    5.6518 C   0  0  0  0  0  0  0  0  0  0  0  0
   22.2240   17.7391    5.2277 N   0  0  0  0  0  0  0  0  0  0  0  0
   27.0929   15.4226   11.6084 C   0  0  2  0  0  0  0  0  0  0  0  0
   27.4011   14.2313   12.4528 N   0  0  0  0  0  0  0  0  0  0  0  0
   26.2548   16.4417   12.5225 C   0  0  0  0  0  0  0  0  0  0  0  0
   25.9064   17.7459   11.7125 C   0  0  2  0  0  0  0  0  0  0  0  0
   25.1209   18.6794   12.5331 N   0  0  0  0  0  0  0  0  0  0  0  0
   25.0805   17.3917   10.4597 C   0  0  2  0  0  0  0  0  0  0  0  0
   25.8777   16.3833    9.5374 C   0  0  2  0  0  0  0  0  0  0  0  0
   25.0121   16.1155    8.3720 O   0  0  0  0  0  0  0  0  0  0  0  0
   26.1645   15.0315   10.3691 C   0  0  1  0  0  0  0  0  0  0  0  0
   26.8590   14.1552    9.5388 O   0  0  0  0  0  0  0  0  0  0  0  0
   25.0227   15.0667    7.6218 C   0  0  1  0  0  0  0  0  0  0  0  0
   24.0946   15.1205    6.3727 C   0  0  2  0  0  0  0  0  0  0  0  0
   22.8560   14.5936    6.7306 O   0  0  0  0  0  0  0  0  0  0  0  0
   24.8455   14.2005    5.5021 C   0  0  1  0  0  0  0  0  0  0  0  0
   26.3682   14.4650    5.7138 C   0  0  2  0  0  0  0  0  0  0  0  0
   26.3405   14.6951    7.1012 O   0  0  0  0  0  0  0  0  0  0  0  0
   27.0492   15.5133    4.8328 C   0  0  0  0  0  0  0  0  0  0  0  0
   26.1310   16.5828    4.7076 O   0  0  0  0  0  0  0  0  0  0  0  0
   24.6194   12.4418    7.1988 C   0  0  2  0  0  0  0  0  0  0  0  0
   24.4370   12.8140    5.8982 O   0  0  0  0  0  0  0  0  0  0  0  0
   24.9647   10.9873    7.3264 C   0  0  1  0  0  0  0  0  0  0  0  0
   21.7542   14.1561   10.2153 N   0  0  0  0  0  0  0  0  0  0  0  0
   25.6138   11.3705   14.2065 O   0  0  0  0  0  0  0  0  0  0  0  0
   25.1103   10.6160    8.8532 C   0  0  2  0  0  0  0  0  0  0  0  0
   23.8321   10.9359    9.7034 C   0  0  1  0  0  0  0  0  0  0  0  0
   23.5259   12.3412    9.5727 C   0  0  1  0  0  0  0  0  0  0  0  0
   23.3811   12.7244    8.1121 O   0  0  0  0  0  0  0  0  0  0  0  0
   22.2068   12.7031   10.3863 C   0  0  0  0  0  0  0  0  0  0  0  0
   23.9335   10.1966    6.7807 N   0  0  0  0  0  0  0  0  0  0  0  0
   23.2700   21.9197    8.0881 O   0  0  0  0  0  0  0  0  0  0  0  0
   27.4996   11.3467   12.9405 C   0  0  0  0  0  0  0  0  0  0  0  0
   22.9564   10.3241    9.2836 O   0  0  0  0  0  0  0  0  0  0  0  0
   25.9671   11.2441    9.2943 O   0  0  0  0  0  0  0  0  0  0  0  0
   26.2475   13.3521   12.8336 C   0  0  0  0  0  0  0  0  0  0  0  0
   26.6749   10.7171   12.0353 C   0  0  0  0  0  0  0  0  0  0  0  0
   26.7415   12.1035   13.7328 C   0  0  1  0  0  0  0  0  0  0  0  0
   24.0508   20.6750    5.8650 F   0  0  0  0  0  0  0  0  0  0  0  0
  1  2  1  1  0  0  0
  1 10  1  0  0  0  0
  1  3  1  0  0  0  0
  3  4  1  1  0  0  0
  3  6  1  0  0  0  0
  5 46  2  0  0  0  0
  6 42  1  6  0  0  0
  6  8  1  0  0  0  0
  7 47  1  0  0  0  0
  8  9  1  0  0  0  0
  8 49  1  6  0  0  0
  9 10  1  0  0  0  0
  9 11  1  6  0  0  0
 11 12  1  0  0  0  0
 13 14  1  1  0  0  0
 13 15  1  0  0  0  0
 13 21  1  0  0  0  0
 14 46  1  0  0  0  0
 15 16  1  0  0  0  0
 16 17  1  1  0  0  0
 16 18  1  0  0  0  0
 18  2  1  6  0  0  0
 18 19  1  0  0  0  0
 19 20  1  6  0  0  0
 19 21  1  0  0  0  0
 21 22  1  6  0  0  0
 23 20  1  6  0  0  0
 23 24  1  0  0  0  0
 23 28  1  0  0  0  0
 24 25  1  1  0  0  0
 24 26  1  0  0  0  0
 26 27  1  0  0  0  0
 26 32  1  1  0  0  0
 27 28  1  0  0  0  0
 27 29  1  6  0  0  0
 29 30  1  0  0  0  0
 31 32  1  6  0  0  0
 31 33  1  0  0  0  0
 31 39  1  0  0  0  0
 33 36  1  0  0  0  0
 33 41  1  1  0  0  0
 34 40  1  0  0  0  0
 35 48  1  0  0  0  0
 36 37  1  0  0  0  0
 36 45  1  1  0  0  0
 37 38  1  0  0  0  0
 37 44  1  6  0  0  0
 38 39  1  0  0  0  0
 38 40  1  1  0  0  0
 43 47  1  0  0  0  0
 46 48  1  0  0  0  0
 48 43  1  6  0  0  0
M  END
>  <CHROM.1>
-165.93290770,94.88800952,-62.70092919,68.93818195,-154.68958818,-173.93758612
-57.37167875,39.83330482,-146.21674391,-175.73243711,-159.69375820,47.48646374
-7.44675415,24.97514743,15.15446385,8.96648272,-2.04498491,1.29308032,-3.07485191

>  <Name>
ligand

>  <RI>
0

>  <Rbt.Current_Directory>
/home/itssahil/PROJECTS/Mol_Feturizer/New_Systems/rnas/4PDQ

>  <Rbt.Executable>
rbdock ($Id: //depot/dev/client3/rdock/2013.1/src/exe/rbdock.cxx#4 $)

>  <Rbt.Library>
libRbt.so (2013.1, Build901 2013/11/27)

>  <Rbt.Parameter_File>
/export/apps/rDock/src/rDock_2013.1_src/data/scripts/dock_solv.prm

>  <Rbt.Receptor>
prm/blind_docking_40.prm

>  <SCORE>
8.88022

>  <SCORE.INTER>
0.986835

>  <SCORE.INTER.CONST>
1

>  <SCORE.INTER.POLAR>
0

>  <SCORE.INTER.ROT>
13

>  <SCORE.INTER.SOLV>
34.2698

>  <SCORE.INTER.VDW>
-23.032

>  <SCORE.INTER.norm>
0.0201395

>  <SCORE.INTRA>
4.55075

>  <SCORE.INTRA.DIHEDRAL>
-17.4517

>  <SCORE.INTRA.DIHEDRAL.0>
34.5115

>  <SCORE.INTRA.POLAR>
0

>  <SCORE.INTRA.POLAR.0>
0

>  <SCORE.INTRA.REPUL>
0.0430409

>  <SCORE.INTRA.REPUL.0>
0

>  <SCORE.INTRA.SOLV>
7.13524

>  <SCORE.INTRA.SOLV.lig_0>
-122.812

>  <SCORE.INTRA.VDW>
9.49376

>  <SCORE.INTRA.VDW.0>
-7.46208

>  <SCORE.INTRA.norm>
0.0928724

>  <SCORE.RESTR>
3.34264

>  <SCORE.RESTR.CAVITY>
3.34264

>  <SCORE.RESTR.norm>
0.0682172

>  <SCORE.SYSTEM>
0

>  <SCORE.SYSTEM.CONST>
0

>  <SCORE.SYSTEM.DIHEDRAL>
0

>  <SCORE.SYSTEM.SOLV>
0

>  <SCORE.SYSTEM.norm>
0

>  <SCORE.heavy>
49

>  <SCORE.norm>
0.181229

>  <RMSD>
10.639

$$$$
ligand
 OpenBabel11021811513D
libRbt.so/2013.1/901 2013/11/27
 49 52  0  0  0  0  0  0  0  0999 V2000
   24.4899   14.2334   11.0699 C   0  0  2  0  0  0  0  0  0  0  0  0
   25.0120   13.6061    9.9359 O   0  0  0  0  0  0  0  0  0  0  0  0
   23.7606   15.5641   10.6522 C   0  0  2  0  0  0  0  0  0  0  0  0
   22.6481   15.2352    9.6690 N   0  0  0  0  0  0  0  0  0  0  0  0
   25.4399    7.4836   13.0447 O   0  0  0  0  0  0  0  0  0  0  0  0
   24.7717   16.5651   10.0461 C   0  0  2  0  0  0  0  0  0  0  0  0
   28.4899    6.5002   13.1838 N   0  0  0  0  0  0  0  0  0  0  0  0
   25.8959   16.8662   11.0497 C   0  0  2  0  0  0  0  0  0  0  0  0
   26.6546   15.5455   11.4966 C   0  0  2  0  0  0  0  0  0  0  0  0
   25.6104   14.5675   12.0383 O   0  0  0  0  0  0  0  0  0  0  0  0
   27.7543   15.8512   12.5543 C   0  0  0  0  0  0  0  0  0  0  0  0
   28.3145   17.1500   12.4401 N   0  0  0  0  0  0  0  0  0  0  0  0
   25.7634    9.4513   10.9238 C   0  0  2  0  0  0  0  0  0  0  0  0
   26.0170    7.9932   10.7327 N   0  0  0  0  0  0  0  0  0  0  0  0
   24.5559    9.8502    9.9444 C   0  0  0  0  0  0  0  0  0  0  0  0
   24.2042   11.3767   10.1004 C   0  0  2  0  0  0  0  0  0  0  0  0
   23.1122   11.7592    9.1932 N   0  0  0  0  0  0  0  0  0  0  0  0
   25.4343   12.2447    9.7683 C   0  0  2  0  0  0  0  0  0  0  0  0
   26.6463   11.8732   10.7148 C   0  0  2  0  0  0  0  0  0  0  0  0
   27.7623   12.7574   10.3247 O   0  0  0  0  0  0  0  0  0  0  0  0
   27.0287   10.3229   10.4879 C   0  0  1  0  0  0  0  0  0  0  0  0
   28.1010   10.0180   11.3227 O   0  0  0  0  0  0  0  0  0  0  0  0
   28.1255   13.0665    9.1266 C   0  0  1  0  0  0  0  0  0  0  0  0
   28.8747   14.4233    8.9769 C   0  0  2  0  0  0  0  0  0  0  0  0
   27.9296   15.4135    8.7196 O   0  0  0  0  0  0  0  0  0  0  0  0
   29.6678   14.1045    7.7781 C   0  0  1  0  0  0  0  0  0  0  0  0
   30.1495   12.6252    7.8931 C   0  0  2  0  0  0  0  0  0  0  0  0
   28.9884   12.0809    8.4711 O   0  0  0  0  0  0  0  0  0  0  0  0
   31.4845   12.3514    8.5872 C   0  0  0  0  0  0  0  0  0  0  0  0
   31.7837   13.5106    9.3418 O   0  0  0  0  0  0  0  0  0  0  0  0
   27.4779   13.8930    6.6905 C   0  0  2  0  0  0  0  0  0  0  0  0
   28.7676   14.3315    6.6015 O   0  0  0  0  0  0  0  0  0  0  0  0
   27.1490   12.8877    5.6264 C   0  0  1  0  0  0  0  0  0  0  0  0
   22.5398   15.5644    6.9771 N   0  0  0  0  0  0  0  0  0  0  0  0
   25.2032    5.1167   10.5498 O   0  0  0  0  0  0  0  0  0  0  0  0
   25.6345   12.4642    5.7568 C   0  0  2  0  0  0  0  0  0  0  0  0
   24.6348   13.6696    5.6772 C   0  0  1  0  0  0  0  0  0  0  0  0
   24.9648   14.6174    6.7156 C   0  0  1  0  0  0  0  0  0  0  0  0
   26.4178   15.0408    6.6125 O   0  0  0  0  0  0  0  0  0  0  0  0
   24.0006   15.8816    6.6447 C   0  0  0  0  0  0  0  0  0  0  0  0
   27.3354   13.4568    4.3506 N   0  0  0  0  0  0  0  0  0  0  0  0
   24.2265   17.5362    9.7890 O   0  0  0  0  0  0  0  0  0  0  0  0
   27.3666    5.5179   11.1145 C   0  0  0  0  0  0  0  0  0  0  0  0
   24.7621   14.1779    4.6559 O   0  0  0  0  0  0  0  0  0  0  0  0
   25.4860   11.9786    6.7890 O   0  0  0  0  0  0  0  0  0  0  0  0
   25.8097    7.1060   11.9238 C   0  0  0  0  0  0  0  0  0  0  0  0
   28.2034    5.5110   12.2080 C   0  0  0  0  0  0  0  0  0  0  0  0
   26.1103    5.5613   11.5563 C   0  0  1  0  0  0  0  0  0  0  0  0
   25.3614   17.4745   12.1993 F   0  0  0  0  0  0  0  0  0  0  0  0
  1  2  1  6  0  0  0
  1 10  1  0  0  0  0
  1  3  1  0  0  0  0
  3  4  1  6  0  0  0
  3  6  1  0  0  0  0
  5 46  2  0  0  0  0
  6 42  1  1  0  0  0
  6  8  1  0  0  0  0
  7 47  1  0  0  0  0
  8  9  1  0  0  0  0
  8 49  1  1  0  0  0
  9 10  1  0  0  0  0
  9 11  1  1  0  0  0
 11 12  1  0  0  0  0
 13 14  1  6  0  0  0
 13 15  1  0  0  0  0
 13 21  1  0  0  0  0
 14 46  1  0  0  0  0
 15 16  1  0  0  0  0
 16 17  1  6  0  0  0
 16 18  1  0  0  0  0
 18  2  1  1  0  0  0
 18 19  1  0  0  0  0
 19 20  1  6  0  0  0
 19 21  1  0  0  0  0
 21 22  1  1  0  0  0
 23 20  1  1  0  0  0
 23 24  1  0  0  0  0
 23 28  1  0  0  0  0
 24 25  1  6  0  0  0
 24 26  1  0  0  0  0
 26 27  1  0  0  0  0
 26 32  1  6  0  0  0
 27 28  1  0  0  0  0
 27 29  1  1  0  0  0
 29 30  1  0  0  0  0
 31 32  1  6  0  0  0
 31 33  1  0  0  0  0
 31 39  1  0  0  0  0
 33 36  1  0  0  0  0
 33 41  1  6  0  0  0
 34 40  1  0  0  0  0
 35 48  1  0  0  0  0
 36 37  1  0  0  0  0
 36 45  1  1  0  0  0
 37 38  1  0  0  0  0
 37 44  1  6  0  0  0
 38 39  1  0  0  0  0
 38 40  1  6  0  0  0
 43 47  1  0  0  0  0
 46 48  1  0  0  0  0
 48 43  1  6  0  0  0
M  END
>  <CHROM.1>
-161.94109443,58.21702310,-29.19416484,-117.62211891,-42.50043588,154.59657997
-42.53718198,18.01905492,-120.12566819,66.65861402,-67.94316875,-160.05009821
116.97881081,26.45865205,12.61598462,9.44020201,1.76180352,0.98043820,-0.48889422

>  <Name>
ligand

>  <RI>
0

>  <Rbt.Current_Directory>
/home/itssahil/PROJECTS/Mol_Feturizer/New_Systems/rnas/4PDQ

>  <Rbt.Executable>
rbdock ($Id: //depot/dev/client3/rdock/2013.1/src/exe/rbdock.cxx#4 $)

>  <Rbt.Library>
libRbt.so (2013.1, Build901 2013/11/27)

>  <Rbt.Parameter_File>
/export/apps/rDock/src/rDock_2013.1_src/data/scripts/dock_solv.prm

>  <Rbt.Receptor>
prm/blind_docking_100.prm

>  <SCORE>
10.4633

>  <SCORE.INTER>
2.08901

>  <SCORE.INTER.CONST>
1

>  <SCORE.INTER.POLAR>
0

>  <SCORE.INTER.ROT>
13

>  <SCORE.INTER.SOLV>
29.8163

>  <SCORE.INTER.VDW>
-20.8128

>  <SCORE.INTER.norm>
0.0426329

>  <SCORE.INTRA>
4.26076

>  <SCORE.INTRA.DIHEDRAL>
-9.63925

>  <SCORE.INTRA.DIHEDRAL.0>
34.5115

>  <SCORE.INTRA.POLAR>
0

>  <SCORE.INTRA.POLAR.0>
0

>  <SCORE.INTRA.REPUL>
0

>  <SCORE.INTRA.REPUL.0>
0

>  <SCORE.INTRA.SOLV>
10.0559

>  <SCORE.INTRA.SOLV.lig_0>
-122.812

>  <SCORE.INTRA.VDW>
4.05243

>  <SCORE.INTRA.VDW.0>
-7.46208

>  <SCORE.INTRA.norm>
0.0869542

>  <SCORE.RESTR>
4.11355

>  <SCORE.RESTR.CAVITY>
4.11355

>  <SCORE.RESTR.norm>
0.08395

>  <SCORE.SYSTEM>
0

>  <SCORE.SYSTEM.CONST>
0

>  <SCORE.SYSTEM.DIHEDRAL>
0

>  <SCORE.SYSTEM.SOLV>
0

>  <SCORE.SYSTEM.norm>
0

>  <SCORE.heavy>
49

>  <SCORE.norm>
0.213537

>  <RMSD>
10.661

$$$$
ligand
 OpenBabel11021811513D
libRbt.so/2013.1/901 2013/11/27
 49 52  0  0  0  0  0  0  0  0999 V2000
   24.5841   13.5671   10.6672 C   0  0  2  0  0  0  0  0  0  0  0  0
   25.2711   12.9593    9.6133 O   0  0  0  0  0  0  0  0  0  0  0  0
   23.5334   14.5904   10.0960 C   0  0  2  0  0  0  0  0  0  0  0  0
   22.5633   13.8531    9.1863 N   0  0  0  0  0  0  0  0  0  0  0  0
   26.3463    7.3193   13.1314 O   0  0  0  0  0  0  0  0  0  0  0  0
   24.2509   15.7366    9.3454 C   0  0  2  0  0  0  0  0  0  0  0  0
   29.5506    3.9771   13.8008 N   0  0  0  0  0  0  0  0  0  0  0  0
   25.2393   16.4531   10.2787 C   0  0  2  0  0  0  0  0  0  0  0  0
   26.3152   15.4510   10.8769 C   0  0  2  0  0  0  0  0  0  0  0  0
   25.5608   14.3097   11.5614 O   0  0  0  0  0  0  0  0  0  0  0  0
   27.2781   16.1724   11.8638 C   0  0  0  0  0  0  0  0  0  0  0  0
   27.6747   15.3717   12.9663 N   0  0  0  0  0  0  0  0  0  0  0  0
   26.9602    9.2188   11.0125 C   0  0  2  0  0  0  0  0  0  0  0  0
   27.4158    7.7978   10.9948 N   0  0  0  0  0  0  0  0  0  0  0  0
   25.5039    9.2532   10.3384 C   0  0  0  0  0  0  0  0  0  0  0  0
   24.9340   10.7207   10.3380 C   0  0  2  0  0  0  0  0  0  0  0  0
   23.6081   10.7688    9.7044 N   0  0  0  0  0  0  0  0  0  0  0  0
   25.8762   11.6592    9.5579 C   0  0  2  0  0  0  0  0  0  0  0  0
   27.3242   11.6453   10.1951 C   0  0  2  0  0  0  0  0  0  0  0  0
   28.1408   12.5730    9.3876 O   0  0  0  0  0  0  0  0  0  0  0  0
   27.9108   10.1446   10.1237 C   0  0  1  0  0  0  0  0  0  0  0  0
   29.1869   10.1549   10.6814 O   0  0  0  0  0  0  0  0  0  0  0  0
   27.7173   13.5604    8.6746 C   0  0  1  0  0  0  0  0  0  0  0  0
   28.8183   14.4006    7.9629 C   0  0  2  0  0  0  0  0  0  0  0  0
   29.1828   15.4436    8.8110 O   0  0  0  0  0  0  0  0  0  0  0  0
   28.0230   14.8815    6.8209 C   0  0  1  0  0  0  0  0  0  0  0  0
   27.0954   13.7188    6.3506 C   0  0  2  0  0  0  0  0  0  0  0  0
   26.7731   13.1954    7.6158 O   0  0  0  0  0  0  0  0  0  0  0  0
   27.6298   12.7493    5.2954 C   0  0  0  0  0  0  0  0  0  0  0  0
   26.5271   12.4073    4.4769 O   0  0  0  0  0  0  0  0  0  0  0  0
   26.3825   16.6681    6.4465 C   0  0  2  0  0  0  0  0  0  0  0  0
   27.2568   16.0732    7.3098 O   0  0  0  0  0  0  0  0  0  0  0  0
   26.4206   18.1646    6.5471 C   0  0  1  0  0  0  0  0  0  0  0  0
   21.7347   16.9110    7.1986 N   0  0  0  0  0  0  0  0  0  0  0  0
   27.0152    4.8419   10.8229 O   0  0  0  0  0  0  0  0  0  0  0  0
   25.3532   18.7824    5.5627 C   0  0  2  0  0  0  0  0  0  0  0  0
   23.8931   18.2692    5.8147 C   0  0  1  0  0  0  0  0  0  0  0  0
   23.8800   16.8294    5.7031 C   0  0  1  0  0  0  0  0  0  0  0  0
   24.8993   16.2101    6.6406 O   0  0  0  0  0  0  0  0  0  0  0  0
   22.4229   16.2599    5.9955 C   0  0  0  0  0  0  0  0  0  0  0  0
   26.0928   18.5689    7.8568 N   0  0  0  0  0  0  0  0  0  0  0  0
   23.4709   16.4860    8.9762 O   0  0  0  0  0  0  0  0  0  0  0  0
   28.9007    5.5318   11.8853 C   0  0  0  0  0  0  0  0  0  0  0  0
   23.5861   18.5621    6.8812 O   0  0  0  0  0  0  0  0  0  0  0  0
   25.6327   18.4722    4.4908 O   0  0  0  0  0  0  0  0  0  0  0  0
   27.0219    6.9437   12.1628 C   0  0  0  0  0  0  0  0  0  0  0  0
   29.4516    5.2098   13.1055 C   0  0  0  0  0  0  0  0  0  0  0  0
   27.5761    5.4354   11.9919 C   0  0  1  0  0  0  0  0  0  0  0  0
   24.5452   17.0415   11.3507 F   0  0  0  0  0  0  0  0  0  0  0  0
  1  2  1  6  0  0  0
  1 10  1  0  0  0  0
  1  3  1  0  0  0  0
  3  4  1  6  0  0  0
  3  6  1  0  0  0  0
  5 46  2  0  0  0  0
  6 42  1  1  0  0  0
  6  8  1  0  0  0  0
  7 47  1  0  0  0  0
  8  9  1  0  0  0  0
  8 49  1  1  0  0  0
  9 10  1  0  0  0  0
  9 11  1  1  0  0  0
 11 12  1  0  0  0  0
 13 14  1  6  0  0  0
 13 15  1  0  0  0  0
 13 21  1  0  0  0  0
 14 46  1  0  0  0  0
 15 16  1  0  0  0  0
 16 17  1  6  0  0  0
 16 18  1  0  0  0  0
 18  2  1  1  0  0  0
 18 19  1  0  0  0  0
 19 20  1  6  0  0  0
 19 21  1  0  0  0  0
 21 22  1  1  0  0  0
 23 20  1  6  0  0  0
 23 24  1  0  0  0  0
 23 28  1  0  0  0  0
 24 25  1  1  0  0  0
 24 26  1  0  0  0  0
 26 27  1  0  0  0  0
 26 32  1  1  0  0  0
 27 28  1  0  0  0  0
 27 29  1  6  0  0  0
 29 30  1  0  0  0  0
 31 32  1  1  0  0  0
 31 33  1  0  0  0  0
 31 39  1  0  0  0  0
 33 36  1  0  0  0  0
 33 41  1  1  0  0  0
 34 40  1  0  0  0  0
 35 48  1  0  0  0  0
 36 37  1  0  0  0  0
 36 45  1  6  0  0  0
 37 38  1  0  0  0  0
 37 44  1  1  0  0  0
 38 39  1  0  0  0  0
 38 40  1  1  0  0  0
 43 47  1  0  0  0  0
 46 48  1  0  0  0  0
 48 43  1  6  0  0  0
M  END
>  <CHROM.1>
-151.76974276,37.73483023,144.21265590,-87.89029343,24.25562220,178.04364693
-176.77778293,-144.11799673,-139.85853296,-43.43834746,70.33430685,-139.55888557
117.70979973,26.16501019,13.20467330,9.14990985,2.02537631,0.97957061,-0.82054186

>  <Name>
ligand

>  <RI>
0

>  <Rbt.Current_Directory>
/home/itssahil/PROJECTS/Mol_Feturizer/New_Systems/rnas/4PDQ

>  <Rbt.Executable>
rbdock ($Id: //depot/dev/client3/rdock/2013.1/src/exe/rbdock.cxx#4 $)

>  <Rbt.Library>
libRbt.so (2013.1, Build901 2013/11/27)

>  <Rbt.Parameter_File>
/export/apps/rDock/src/rDock_2013.1_src/data/scripts/dock_solv.prm

>  <Rbt.Receptor>
prm/blind_docking_60.prm

>  <SCORE>
5.74304

>  <SCORE.INTER>
0.143081

>  <SCORE.INTER.CONST>
1

>  <SCORE.INTER.POLAR>
0

>  <SCORE.INTER.ROT>
13

>  <SCORE.INTER.SOLV>
22.0476

>  <SCORE.INTER.VDW>
-19.5205

>  <SCORE.INTER.norm>
0.00292001

>  <SCORE.INTRA>
4.20981

>  <SCORE.INTRA.DIHEDRAL>
-5.49051

>  <SCORE.INTRA.DIHEDRAL.0>
34.5115

>  <SCORE.INTRA.POLAR>
0

>  <SCORE.INTRA.POLAR.0>
0

>  <SCORE.INTRA.REPUL>
0.205023

>  <SCORE.INTRA.REPUL.0>
0

>  <SCORE.INTRA.SOLV>
7.23119

>  <SCORE.INTRA.SOLV.lig_0>
-122.812

>  <SCORE.INTRA.VDW>
2.31436

>  <SCORE.INTRA.VDW.0>
-7.46208

>  <SCORE.INTRA.norm>
0.0859146

>  <SCORE.RESTR>
1.39015

>  <SCORE.RESTR.CAVITY>
1.39015

>  <SCORE.RESTR.norm>
0.0283704

>  <SCORE.SYSTEM>
0

>  <SCORE.SYSTEM.CONST>
0

>  <SCORE.SYSTEM.DIHEDRAL>
0

>  <SCORE.SYSTEM.SOLV>
0

>  <SCORE.SYSTEM.norm>
0

>  <SCORE.heavy>
49

>  <SCORE.norm>
0.117205

>  <RMSD>
10.664

$$$$
ligand
 OpenBabel11021811513D
libRbt.so/2013.1/901 2013/11/27
 49 52  0  0  0  0  0  0  0  0999 V2000
   24.7669   13.6666   10.9162 C   0  0  2  0  0  0  0  0  0  0  0  0
   25.2174   13.0232    9.7608 O   0  0  0  0  0  0  0  0  0  0  0  0
   23.8865   14.9104   10.5223 C   0  0  2  0  0  0  0  0  0  0  0  0
   22.7082   14.4414    9.6833 N   0  0  0  0  0  0  0  0  0  0  0  0
   25.8305    7.0971   12.3727 O   0  0  0  0  0  0  0  0  0  0  0  0
   24.7386   15.9551    9.7644 C   0  0  2  0  0  0  0  0  0  0  0  0
   29.5120    3.2339   11.1532 N   0  0  0  0  0  0  0  0  0  0  0  0
   25.9330   16.3986   10.6236 C   0  0  2  0  0  0  0  0  0  0  0  0
   26.8448   15.1687   11.0427 C   0  0  2  0  0  0  0  0  0  0  0  0
   25.9512   14.1408   11.7393 O   0  0  0  0  0  0  0  0  0  0  0  0
   28.0203   15.6177   11.9582 C   0  0  0  0  0  0  0  0  0  0  0  0
   28.0117   17.0034   12.2645 N   0  0  0  0  0  0  0  0  0  0  0  0
   27.0865    9.2872   10.9235 C   0  0  2  0  0  0  0  0  0  0  0  0
   27.5563    7.8734   10.8375 N   0  0  0  0  0  0  0  0  0  0  0  0
   25.5696    9.3106   10.3993 C   0  0  0  0  0  0  0  0  0  0  0  0
   24.9837   10.7696   10.4796 C   0  0  2  0  0  0  0  0  0  0  0  0
   23.6003   10.8078    9.9829 N   0  0  0  0  0  0  0  0  0  0  0  0
   25.8306   11.7328    9.6241 C   0  0  2  0  0  0  0  0  0  0  0  0
   27.3353   11.7305   10.1128 C   0  0  2  0  0  0  0  0  0  0  0  0
   28.0546   12.6816    9.2425 O   0  0  0  0  0  0  0  0  0  0  0  0
   27.9310   10.2396    9.9589 C   0  0  1  0  0  0  0  0  0  0  0  0
   29.2565   10.2602   10.3860 O   0  0  0  0  0  0  0  0  0  0  0  0
   27.5488   13.6724    8.5903 C   0  0  1  0  0  0  0  0  0  0  0  0
   28.5280   14.4293    7.6455 C   0  0  2  0  0  0  0  0  0  0  0  0
   29.1057   15.4719    8.3660 O   0  0  0  0  0  0  0  0  0  0  0  0
   27.5476   14.9243    6.6648 C   0  0  1  0  0  0  0  0  0  0  0  0
   26.4875   13.8043    6.4295 C   0  0  2  0  0  0  0  0  0  0  0  0
   26.3963   13.3338    7.7519 O   0  0  0  0  0  0  0  0  0  0  0  0
   26.7524   12.7784    5.3267 C   0  0  0  0  0  0  0  0  0  0  0  0
   27.3117   11.6459    5.9650 O   0  0  0  0  0  0  0  0  0  0  0  0
   25.9360   16.7729    6.5701 C   0  0  2  0  0  0  0  0  0  0  0  0
   26.9548   16.1702    7.2500 O   0  0  0  0  0  0  0  0  0  0  0  0
   26.0628   18.2679    6.5724 C   0  0  1  0  0  0  0  0  0  0  0  0
   20.8286   16.4111    6.0195 N   0  0  0  0  0  0  0  0  0  0  0  0
   27.8063    5.2002   10.0780 O   0  0  0  0  0  0  0  0  0  0  0  0
   24.8298   18.8986    5.8161 C   0  0  2  0  0  0  0  0  0  0  0  0
   23.4425   18.4814    6.4164 C   0  0  1  0  0  0  0  0  0  0  0  0
   23.3402   17.0410    6.3945 C   0  0  1  0  0  0  0  0  0  0  0  0
   24.5157   16.4094    7.1158 O   0  0  0  0  0  0  0  0  0  0  0  0
   21.9624   16.5693    7.0365 C   0  0  0  0  0  0  0  0  0  0  0  0
   26.0570   18.7508    7.8964 N   0  0  0  0  0  0  0  0  0  0  0  0
   24.0883   16.8643    9.5258 O   0  0  0  0  0  0  0  0  0  0  0  0
   28.4835    5.2980   12.2440 C   0  0  0  0  0  0  0  0  0  0  0  0
   23.3972   18.8407    7.5056 O   0  0  0  0  0  0  0  0  0  0  0  0
   24.8463   18.5234    4.7289 O   0  0  0  0  0  0  0  0  0  0  0  0
   26.8070    6.8583   11.6480 C   0  0  0  0  0  0  0  0  0  0  0  0
   28.9506    4.0033   12.2047 C   0  0  0  0  0  0  0  0  0  0  0  0
   27.4241    5.3793   11.4401 C   0  0  1  0  0  0  0  0  0  0  0  0
   25.4735   17.0230   11.7967 F   0  0  0  0  0  0  0  0  0  0  0  0
  1  2  1  6  0  0  0
  1 10  1  0  0  0  0
  1  3  1  0  0  0  0
  3  4  1  6  0  0  0
  3  6  1  0  0  0  0
  5 46  2  0  0  0  0
  6 42  1  1  0  0  0
  6  8  1  0  0  0  0
  7 47  1  0  0  0  0
  8  9  1  0  0  0  0
  8 49  1  1  0  0  0
  9 10  1  0  0  0  0
  9 11  1  1  0  0  0
 11 12  1  0  0  0  0
 13 14  1  6  0  0  0
 13 15  1  0  0  0  0
 13 21  1  0  0  0  0
 14 46  1  0  0  0  0
 15 16  1  0  0  0  0
 16 17  1  6  0  0  0
 16 18  1  0  0  0  0
 18  2  1  1  0  0  0
 18 19  1  0  0  0  0
 19 20  1  6  0  0  0
 19 21  1  0  0  0  0
 21 22  1  1  0  0  0
 23 20  1  6  0  0  0
 23 24  1  0  0  0  0
 23 28  1  0  0  0  0
 24 25  1  1  0  0  0
 24 26  1  0  0  0  0
 26 27  1  0  0  0  0
 26 32  1  1  0  0  0
 27 28  1  0  0  0  0
 27 29  1  6  0  0  0
 29 30  1  0  0  0  0
 31 32  1  1  0  0  0
 31 33  1  0  0  0  0
 31 39  1  0  0  0  0
 33 36  1  0  0  0  0
 33 41  1  1  0  0  0
 34 40  1  0  0  0  0
 35 48  1  0  0  0  0
 36 37  1  0  0  0  0
 36 45  1  6  0  0  0
 37 38  1  0  0  0  0
 37 44  1  1  0  0  0
 38 39  1  0  0  0  0
 38 40  1  1  0  0  0
 43 47  1  0  0  0  0
 46 48  1  0  0  0  0
 48 43  1  1  0  0  0
M  END
>  <CHROM.1>
-167.37406524,45.71391671,2.02788086,-60.61795478,24.17894284,-174.54973567
-175.22174748,97.16704674,-139.16410801,91.60574693,64.49285270,-67.04738591
140.64389135,26.11749840,13.24160992,9.16106183,3.07419210,1.30892748,-1.83515861

>  <Name>
ligand

>  <RI>
0

>  <Rbt.Current_Directory>
/home/itssahil/PROJECTS/Mol_Feturizer/New_Systems/rnas/4PDQ

>  <Rbt.Executable>
rbdock ($Id: //depot/dev/client3/rdock/2013.1/src/exe/rbdock.cxx#4 $)

>  <Rbt.Library>
libRbt.so (2013.1, Build901 2013/11/27)

>  <Rbt.Parameter_File>
/export/apps/rDock/src/rDock_2013.1_src/data/scripts/dock_solv.prm

>  <Rbt.Receptor>
prm/blind_docking_60.prm

>  <SCORE>
12.0624

>  <SCORE.INTER>
4.36516

>  <SCORE.INTER.CONST>
1

>  <SCORE.INTER.POLAR>
0

>  <SCORE.INTER.ROT>
13

>  <SCORE.INTER.SOLV>
26.3875

>  <SCORE.INTER.VDW>
-18.1524

>  <SCORE.INTER.norm>
0.0890849

>  <SCORE.INTRA>
5.43624

>  <SCORE.INTRA.DIHEDRAL>
-9.11273

>  <SCORE.INTRA.DIHEDRAL.0>
34.5115

>  <SCORE.INTRA.POLAR>
0

>  <SCORE.INTRA.POLAR.0>
0

>  <SCORE.INTRA.REPUL>
0.358381

>  <SCORE.INTRA.REPUL.0>
0

>  <SCORE.INTRA.SOLV>
5.17995

>  <SCORE.INTRA.SOLV.lig_0>
-122.812

>  <SCORE.INTRA.VDW>
5.61072

>  <SCORE.INTRA.VDW.0>
-7.46208

>  <SCORE.INTRA.norm>
0.110944

>  <SCORE.RESTR>
2.26099

>  <SCORE.RESTR.CAVITY>
2.26099

>  <SCORE.RESTR.norm>
0.0461426

>  <SCORE.SYSTEM>
0

>  <SCORE.SYSTEM.CONST>
0

>  <SCORE.SYSTEM.DIHEDRAL>
0

>  <SCORE.SYSTEM.SOLV>
0

>  <SCORE.SYSTEM.norm>
0

>  <SCORE.heavy>
49

>  <SCORE.norm>
0.246171

>  <RMSD>
10.670

$$$$
ligand
 OpenBabel11021811513D
libRbt.so/2013.1/901 2013/11/27
 49 52  0  0  0  0  0  0  0  0999 V2000
   30.2342    9.4335    5.7891 C   0  0  2  0  0  0  0  0  0  0  0  0
   30.3449    9.2169    4.4133 O   0  0  0  0  0  0  0  0  0  0  0  0
   31.4845    8.8230    6.5250 C   0  0  2  0  0  0  0  0  0  0  0  0
   32.7478    9.4754    5.9858 N   0  0  0  0  0  0  0  0  0  0  0  0
   24.6605   10.1688    1.1106 O   0  0  0  0  0  0  0  0  0  0  0  0
   31.5203    7.2877    6.3427 C   0  0  2  0  0  0  0  0  0  0  0  0
   22.8370    9.4826   -2.9899 N   0  0  0  0  0  0  0  0  0  0  0  0
   30.2261    6.6537    6.8762 C   0  0  2  0  0  0  0  0  0  0  0  0
   28.9410    7.2468    6.1577 C   0  0  2  0  0  0  0  0  0  0  0  0
   28.9764    8.7678    6.3180 O   0  0  0  0  0  0  0  0  0  0  0  0
   27.6319    6.6410    6.7417 C   0  0  0  0  0  0  0  0  0  0  0  0
   27.4946    5.2468    6.5155 N   0  0  0  0  0  0  0  0  0  0  0  0
   27.5696   10.1118    1.2041 C   0  0  2  0  0  0  0  0  0  0  0  0
   26.7985   10.9076    0.2045 N   0  0  0  0  0  0  0  0  0  0  0  0
   27.4829   10.9002    2.5995 C   0  0  0  0  0  0  0  0  0  0  0  0
   28.2541   10.1128    3.7235 C   0  0  2  0  0  0  0  0  0  0  0  0
   28.1991   10.8355    5.0028 N   0  0  0  0  0  0  0  0  0  0  0  0
   29.7348    9.9366    3.3319 C   0  0  2  0  0  0  0  0  0  0  0  0
   29.8559    9.1651    1.9560 C   0  0  2  0  0  0  0  0  0  0  0  0
   31.3002    9.0420    1.6761 O   0  0  0  0  0  0  0  0  0  0  0  0
   29.1147   10.0243    0.8097 C   0  0  1  0  0  0  0  0  0  0  0  0
   29.2391    9.3335   -0.3932 O   0  0  0  0  0  0  0  0  0  0  0  0
   32.0701    9.9384    1.1599 C   0  0  1  0  0  0  0  0  0  0  0  0
   33.5988    9.6784    1.3013 C   0  0  2  0  0  0  0  0  0  0  0  0
   34.0339   10.2842    2.4775 O   0  0  0  0  0  0  0  0  0  0  0  0
   34.0570   10.4126    0.1101 C   0  0  1  0  0  0  0  0  0  0  0  0
   33.0326   10.1620   -1.0393 C   0  0  2  0  0  0  0  0  0  0  0  0
   31.8565   10.1856   -0.2680 O   0  0  0  0  0  0  0  0  0  0  0  0
   33.2563    8.9598   -1.9578 C   0  0  0  0  0  0  0  0  0  0  0  0
   32.1572    8.9319   -2.8487 O   0  0  0  0  0  0  0  0  0  0  0  0
   35.2763   12.5413    0.1849 C   0  0  2  0  0  0  0  0  0  0  0  0
   34.1411   11.8552    0.5078 O   0  0  0  0  0  0  0  0  0  0  0  0
   35.4355   12.7025   -1.2983 C   0  0  1  0  0  0  0  0  0  0  0  0
   40.4383   12.6298    0.9714 N   0  0  0  0  0  0  0  0  0  0  0  0
   25.3759   12.9431   -1.0378 O   0  0  0  0  0  0  0  0  0  0  0  0
   36.7885   13.4562   -1.6004 C   0  0  2  0  0  0  0  0  0  0  0  0
   38.0522   12.7448   -1.0038 C   0  0  1  0  0  0  0  0  0  0  0  0
   37.8800   12.6101    0.4237 C   0  0  1  0  0  0  0  0  0  0  0  0
   36.5843   11.8879    0.7413 O   0  0  0  0  0  0  0  0  0  0  0  0
   39.1228   11.8519    1.0669 C   0  0  0  0  0  0  0  0  0  0  0  0
   35.4919   11.4379   -1.9180 N   0  0  0  0  0  0  0  0  0  0  0  0
   32.4121    6.8645    6.9188 O   0  0  0  0  0  0  0  0  0  0  0  0
   24.5944   11.0233   -1.9670 C   0  0  0  0  0  0  0  0  0  0  0  0
   38.1312   11.6985   -1.4691 O   0  0  0  0  0  0  0  0  0  0  0  0
   36.7346   14.4975   -1.1145 O   0  0  0  0  0  0  0  0  0  0  0  0
   25.3030   10.8304    0.2827 C   0  0  0  0  0  0  0  0  0  0  0  0
   23.3973   10.3444   -2.0120 C   0  0  0  0  0  0  0  0  0  0  0  0
   24.6141   11.7522   -0.8518 C   0  0  1  0  0  0  0  0  0  0  0  0
   30.1075    6.8963    8.2562 F   0  0  0  0  0  0  0  0  0  0  0  0
  1  2  1  6  0  0  0
  1 10  1  0  0  0  0
  1  3  1  0  0  0  0
  3  4  1  6  0  0  0
  3  6  1  0  0  0  0
  5 46  2  0  0  0  0
  6 42  1  1  0  0  0
  6  8  1  0  0  0  0
  7 47  1  0  0  0  0
  8  9  1  0  0  0  0
  8 49  1  1  0  0  0
  9 10  1  0  0  0  0
  9 11  1  1  0  0  0
 11 12  1  0  0  0  0
 13 14  1  6  0  0  0
 13 15  1  0  0  0  0
 13 21  1  0  0  0  0
 14 46  1  0  0  0  0
 15 16  1  0  0  0  0
 16 17  1  1  0  0  0
 16 18  1  0  0  0  0
 18  2  1  1  0  0  0
 18 19  1  0  0  0  0
 19 20  1  6  0  0  0
 19 21  1  0  0  0  0
 21 22  1  6  0  0  0
 23 20  1  6  0  0  0
 23 24  1  0  0  0  0
 23 28  1  0  0  0  0
 24 25  1  1  0  0  0
 24 26  1  0  0  0  0
 26 27  1  0  0  0  0
 26 32  1  1  0  0  0
 27 28  1  0  0  0  0
 27 29  1  1  0  0  0
 29 30  1  0  0  0  0
 31 32  1  6  0  0  0
 31 33  1  0  0  0  0
 31 39  1  0  0  0  0
 33 36  1  0  0  0  0
 33 41  1  6  0  0  0
 34 40  1  0  0  0  0
 35 48  1  0  0  0  0
 36 37  1  0  0  0  0
 36 45  1  1  0  0  0
 37 38  1  0  0  0  0
 37 44  1  6  0  0  0
 38 39  1  0  0  0  0
 38 40  1  6  0  0  0
 43 47  1  0  0  0  0
 46 48  1  0  0  0  0
 48 43  1  6  0  0  0
M  END
>  <CHROM.1>
-156.84301386,-46.17001939,-64.65662477,-75.99230378,-81.45341952,165.35313839
132.10980708,176.95056279,66.33307458,65.66414997,177.01076145,-149.01187910
142.51932240,31.21120159,10.14414953,1.73520319,-2.76862553,-0.13032223,-1.13491822

>  <Name>
ligand

>  <RI>
0

>  <Rbt.Current_Directory>
/home/itssahil/PROJECTS/Mol_Feturizer/New_Systems/rnas/4PDQ

>  <Rbt.Executable>
rbdock ($Id: //depot/dev/client3/rdock/2013.1/src/exe/rbdock.cxx#4 $)

>  <Rbt.Library>
libRbt.so (2013.1, Build901 2013/11/27)

>  <Rbt.Parameter_File>
/export/apps/rDock/src/rDock_2013.1_src/data/scripts/dock_solv.prm

>  <Rbt.Receptor>
prm/pocket_docking_5.prm

>  <SCORE>
-9.6145

>  <SCORE.INTER>
-6.78205

>  <SCORE.INTER.CONST>
1

>  <SCORE.INTER.POLAR>
0

>  <SCORE.INTER.ROT>
13

>  <SCORE.INTER.SOLV>
22.6261

>  <SCORE.INTER.VDW>
-24.3301

>  <SCORE.INTER.norm>
-0.138409

>  <SCORE.INTRA>
-2.83245

>  <SCORE.INTRA.DIHEDRAL>
-16.9843

>  <SCORE.INTRA.DIHEDRAL.0>
34.5115

>  <SCORE.INTRA.POLAR>
0

>  <SCORE.INTRA.POLAR.0>
0

>  <SCORE.INTRA.REPUL>
0.0611073

>  <SCORE.INTRA.REPUL.0>
0

>  <SCORE.INTRA.SOLV>
1.03712

>  <SCORE.INTRA.SOLV.lig_0>
-122.812

>  <SCORE.INTRA.VDW>
4.83559

>  <SCORE.INTRA.VDW.0>
-7.46208

>  <SCORE.INTRA.norm>
-0.057805

>  <SCORE.RESTR>
0

>  <SCORE.RESTR.CAVITY>
0

>  <SCORE.RESTR.norm>
0

>  <SCORE.SYSTEM>
0

>  <SCORE.SYSTEM.CONST>
0

>  <SCORE.SYSTEM.DIHEDRAL>
0

>  <SCORE.SYSTEM.SOLV>
0

>  <SCORE.SYSTEM.norm>
0

>  <SCORE.heavy>
49

>  <SCORE.norm>
-0.196214

>  <RMSD>
10.672

$$$$
ligand
 OpenBabel11021811513D
libRbt.so/2013.1/901 2013/11/27
 49 52  0  0  0  0  0  0  0  0999 V2000
   22.8858   13.8305   10.5365 C   0  0  2  0  0  0  0  0  0  0  0  0
   24.0793   13.4951    9.8923 O   0  0  0  0  0  0  0  0  0  0  0  0
   21.7703   14.1273    9.4665 C   0  0  2  0  0  0  0  0  0  0  0  0
   21.5746   12.8961    8.5958 N   0  0  0  0  0  0  0  0  0  0  0  0
   24.8686    7.0093   10.6364 O   0  0  0  0  0  0  0  0  0  0  0  0
   22.1521   15.3631    8.6187 C   0  0  2  0  0  0  0  0  0  0  0  0
   29.7073    4.8792   12.1434 N   0  0  0  0  0  0  0  0  0  0  0  0
   22.3638   16.5885    9.5216 C   0  0  2  0  0  0  0  0  0  0  0  0
   23.4825   16.3260   10.6167 C   0  0  2  0  0  0  0  0  0  0  0  0
   23.0901   15.0674   11.3928 O   0  0  0  0  0  0  0  0  0  0  0  0
   23.6522   17.5505   11.5619 C   0  0  0  0  0  0  0  0  0  0  0  0
   23.9723   18.7566   10.8859 N   0  0  0  0  0  0  0  0  0  0  0  0
   25.5862    9.7227   11.4092 C   0  0  2  0  0  0  0  0  0  0  0  0
   26.4942    8.5526   11.5924 N   0  0  0  0  0  0  0  0  0  0  0  0
   25.4520    9.9699    9.8290 C   0  0  0  0  0  0  0  0  0  0  0  0
   24.4856   11.1793    9.5429 C   0  0  2  0  0  0  0  0  0  0  0  0
   24.3702   11.4287    8.0985 N   0  0  0  0  0  0  0  0  0  0  0  0
   25.0209   12.4605   10.2128 C   0  0  2  0  0  0  0  0  0  0  0  0
   25.1694   12.2490   11.7736 C   0  0  2  0  0  0  0  0  0  0  0  0
   25.6766   13.5241   12.3178 O   0  0  0  0  0  0  0  0  0  0  0  0
   26.2136   11.0490   12.0401 C   0  0  1  0  0  0  0  0  0  0  0  0
   26.3363   10.8839   13.4175 O   0  0  0  0  0  0  0  0  0  0  0  0
   26.6825   14.2065   11.8872 C   0  0  1  0  0  0  0  0  0  0  0  0
   26.3348   15.4197   10.9752 C   0  0  2  0  0  0  0  0  0  0  0  0
   26.3353   14.9817    9.6531 O   0  0  0  0  0  0  0  0  0  0  0  0
   27.5082   16.2589   11.2700 C   0  0  1  0  0  0  0  0  0  0  0  0
   27.8332   16.1232   12.7897 C   0  0  2  0  0  0  0  0  0  0  0  0
   27.5494   14.7531   12.9338 O   0  0  0  0  0  0  0  0  0  0  0  0
   27.1621   17.0943   13.7621 C   0  0  0  0  0  0  0  0  0  0  0  0
   27.1321   18.3501   13.1104 O   0  0  0  0  0  0  0  0  0  0  0  0
   28.3036   14.8549    9.4208 C   0  0  2  0  0  0  0  0  0  0  0  0
   28.6167   15.7605   10.3931 O   0  0  0  0  0  0  0  0  0  0  0  0
   29.4157   13.8765    9.1818 C   0  0  1  0  0  0  0  0  0  0  0  0
   26.2520   16.5353    5.8388 N   0  0  0  0  0  0  0  0  0  0  0  0
   28.0353    6.0614   10.3429 O   0  0  0  0  0  0  0  0  0  0  0  0
   29.0077   12.8954    8.0152 C   0  0  2  0  0  0  0  0  0  0  0  0
   28.6451   13.6262    6.6761 C   0  0  1  0  0  0  0  0  0  0  0  0
   27.5676   14.5539    6.9291 C   0  0  1  0  0  0  0  0  0  0  0  0
   27.9351   15.5094    8.0486 O   0  0  0  0  0  0  0  0  0  0  0  0
   27.1950   15.3520    5.6034 C   0  0  0  0  0  0  0  0  0  0  0  0
   30.5841   14.5601    8.7895 N   0  0  0  0  0  0  0  0  0  0  0  0
   21.3095   15.5822    7.8783 O   0  0  0  0  0  0  0  0  0  0  0  0
   27.6555    6.3353   12.5657 C   0  0  0  0  0  0  0  0  0  0  0  0
   29.5662   14.2136    6.3239 O   0  0  0  0  0  0  0  0  0  0  0  0
   28.0673   12.3201    8.3435 O   0  0  0  0  0  0  0  0  0  0  0  0
   25.9783    7.2166   11.1475 C   0  0  0  0  0  0  0  0  0  0  0  0
   28.5595    5.3342   12.8423 C   0  0  0  0  0  0  0  0  0  0  0  0
   27.0763    6.0577   11.3983 C   0  0  1  0  0  0  0  0  0  0  0  0
   21.1662   16.9063   10.1864 F   0  0  0  0  0  0  0  0  0  0  0  0
  1  2  1  6  0  0  0
  1 10  1  0  0  0  0
  1  3  1  0  0  0  0
  3  4  1  6  0  0  0
  3  6  1  0  0  0  0
  5 46  2  0  0  0  0
  6 42  1  6  0  0  0
  6  8  1  0  0  0  0
  7 47  1  0  0  0  0
  8  9  1  0  0  0  0
  8 49  1  1  0  0  0
  9 10  1  0  0  0  0
  9 11  1  1  0  0  0
 11 12  1  0  0  0  0
 13 14  1  6  0  0  0
 13 15  1  0  0  0  0
 13 21  1  0  0  0  0
 14 46  1  0  0  0  0
 15 16  1  0  0  0  0
 16 17  1  6  0  0  0
 16 18  1  0  0  0  0
 18  2  1  1  0  0  0
 18 19  1  0  0  0  0
 19 20  1  1  0  0  0
 19 21  1  0  0  0  0
 21 22  1  1  0  0  0
 23 20  1  1  0  0  0
 23 24  1  0  0  0  0
 23 28  1  0  0  0  0
 24 25  1  6  0  0  0
 24 26  1  0  0  0  0
 26 27  1  0  0  0  0
 26 32  1  6  0  0  0
 27 28  1  0  0  0  0
 27 29  1  1  0  0  0
 29 30  1  0  0  0  0
 31 32  1  1  0  0  0
 31 33  1  0  0  0  0
 31 39  1  0  0  0  0
 33 36  1  0  0  0  0
 33 41  1  6  0  0  0
 34 40  1  0  0  0  0
 35 48  1  0  0  0  0
 36 37  1  0  0  0  0
 36 45  1  1  0  0  0
 37 38  1  0  0  0  0
 37 44  1  1  0  0  0
 38 39  1  0  0  0  0
 38 40  1  6  0  0  0
 43 47  1  0  0  0  0
 46 48  1  0  0  0  0
 48 43  1  1  0  0  0
M  END
>  <CHROM.1>
-137.66326715,84.64845851,-57.45668234,-68.24245484,-49.69305672,99.54751691
9.67899743,-38.44784564,-146.42602915,-169.05298882,60.18002541,-63.16400046
98.02380769,26.01996323,13.13814152,10.21737059,1.85046103,0.20707788,-0.22258406

>  <Name>
ligand

>  <RI>
0

>  <Rbt.Current_Directory>
/home/itssahil/PROJECTS/Mol_Feturizer/New_Systems/rnas/4PDQ

>  <Rbt.Executable>
rbdock ($Id: //depot/dev/client3/rdock/2013.1/src/exe/rbdock.cxx#4 $)

>  <Rbt.Library>
libRbt.so (2013.1, Build901 2013/11/27)

>  <Rbt.Parameter_File>
/export/apps/rDock/src/rDock_2013.1_src/data/scripts/dock_solv.prm

>  <Rbt.Receptor>
prm/blind_docking_100.prm

>  <SCORE>
30.1208

>  <SCORE.INTER>
5.92143

>  <SCORE.INTER.CONST>
1

>  <SCORE.INTER.POLAR>
0

>  <SCORE.INTER.ROT>
13

>  <SCORE.INTER.SOLV>
36.51

>  <SCORE.INTER.VDW>
-20.489

>  <SCORE.INTER.norm>
0.120846

>  <SCORE.INTRA>
21.2882

>  <SCORE.INTRA.DIHEDRAL>
-5.98043

>  <SCORE.INTRA.DIHEDRAL.0>
34.5115

>  <SCORE.INTRA.POLAR>
0

>  <SCORE.INTRA.POLAR.0>
0

>  <SCORE.INTRA.REPUL>
0

>  <SCORE.INTRA.REPUL.0>
0

>  <SCORE.INTRA.SOLV>
3.32736

>  <SCORE.INTRA.SOLV.lig_0>
-122.812

>  <SCORE.INTRA.VDW>
22.6147

>  <SCORE.INTRA.VDW.0>
-7.46208

>  <SCORE.INTRA.norm>
0.434452

>  <SCORE.RESTR>
2.91123

>  <SCORE.RESTR.CAVITY>
2.91123

>  <SCORE.RESTR.norm>
0.0594128

>  <SCORE.SYSTEM>
0

>  <SCORE.SYSTEM.CONST>
0

>  <SCORE.SYSTEM.DIHEDRAL>
0

>  <SCORE.SYSTEM.SOLV>
0

>  <SCORE.SYSTEM.norm>
0

>  <SCORE.heavy>
49

>  <SCORE.norm>
0.614711

>  <RMSD>
10.674

$$$$
ligand
 OpenBabel11021811513D
libRbt.so/2013.1/901 2013/11/27
 49 52  0  0  0  0  0  0  0  0999 V2000
   28.5885    8.4807    6.7377 C   0  0  2  0  0  0  0  0  0  0  0  0
   28.8019    8.3085    5.3677 O   0  0  0  0  0  0  0  0  0  0  0  0
   29.9642    8.4259    7.5003 C   0  0  2  0  0  0  0  0  0  0  0  0
   30.8750    9.5194    6.9643 N   0  0  0  0  0  0  0  0  0  0  0  0
   23.7928    7.8723    1.0568 O   0  0  0  0  0  0  0  0  0  0  0  0
   30.6096    7.0288    7.3476 C   0  0  2  0  0  0  0  0  0  0  0  0
   22.7804    9.1079   -4.1823 N   0  0  0  0  0  0  0  0  0  0  0  0
   29.6632    5.9399    7.8772 C   0  0  2  0  0  0  0  0  0  0  0  0
   28.2620    5.9652    7.1319 C   0  0  2  0  0  0  0  0  0  0  0  0
   27.6882    7.3772    7.2636 O   0  0  0  0  0  0  0  0  0  0  0  0
   27.2899    4.8969    7.7112 C   0  0  0  0  0  0  0  0  0  0  0  0
   27.7140    3.5597    7.4971 N   0  0  0  0  0  0  0  0  0  0  0  0
   26.4821    8.7592    1.7321 C   0  0  2  0  0  0  0  0  0  0  0  0
   25.6474    9.4069    0.6781 N   0  0  0  0  0  0  0  0  0  0  0  0
   25.8665    9.1917    3.1500 C   0  0  0  0  0  0  0  0  0  0  0  0
   26.6770    8.5285    4.3253 C   0  0  2  0  0  0  0  0  0  0  0  0
   26.1349    8.9333    5.6307 N   0  0  0  0  0  0  0  0  0  0  0  0
   28.1564    8.9580    4.2626 C   0  0  2  0  0  0  0  0  0  0  0  0
   28.7934    8.5496    2.8733 C   0  0  2  0  0  0  0  0  0  0  0  0
   30.2005    8.9942    2.9164 O   0  0  0  0  0  0  0  0  0  0  0  0
   27.9866    9.2932    1.6911 C   0  0  1  0  0  0  0  0  0  0  0  0
   28.5666    8.9277    0.4789 O   0  0  0  0  0  0  0  0  0  0  0  0
   31.1086    8.7842    2.0253 C   0  0  1  0  0  0  0  0  0  0  0  0
   32.5006    9.4181    2.3173 C   0  0  2  0  0  0  0  0  0  0  0  0
   32.5279   10.6863    1.7422 O   0  0  0  0  0  0  0  0  0  0  0  0
   33.3368    8.4643    1.5696 C   0  0  1  0  0  0  0  0  0  0  0  0
   32.7489    7.0346    1.7787 C   0  0  2  0  0  0  0  0  0  0  0  0
   31.3839    7.3727    1.7471 O   0  0  0  0  0  0  0  0  0  0  0  0
   33.2506    6.2134    2.9673 C   0  0  0  0  0  0  0  0  0  0  0  0
   32.8613    6.9203    4.1298 O   0  0  0  0  0  0  0  0  0  0  0  0
   34.0901    9.9545   -0.2291 C   0  0  2  0  0  0  0  0  0  0  0  0
   33.3012    8.9022    0.1366 O   0  0  0  0  0  0  0  0  0  0  0  0
   33.8507   10.3720   -1.6502 C   0  0  1  0  0  0  0  0  0  0  0  0
   38.3677    9.9590    1.2347 N   0  0  0  0  0  0  0  0  0  0  0  0
   23.8727   11.0211   -0.6746 O   0  0  0  0  0  0  0  0  0  0  0  0
   34.8281   11.5543   -2.0200 C   0  0  2  0  0  0  0  0  0  0  0  0
   36.3432   11.2057   -1.8159 C   0  0  1  0  0  0  0  0  0  0  0  0
   36.5503   10.8170   -0.4406 C   0  0  1  0  0  0  0  0  0  0  0  0
   35.6209    9.6803   -0.0594 O   0  0  0  0  0  0  0  0  0  0  0  0
   38.0699   10.4111   -0.1978 C   0  0  0  0  0  0  0  0  0  0  0  0
   34.1172    9.2961   -2.5208 N   0  0  0  0  0  0  0  0  0  0  0  0
   31.5851    7.0016    7.9426 O   0  0  0  0  0  0  0  0  0  0  0  0
   23.8581    9.0896   -1.8700 C   0  0  0  0  0  0  0  0  0  0  0  0
   36.6048   10.3190   -2.4962 O   0  0  0  0  0  0  0  0  0  0  0  0
   34.5960   12.4413   -1.3253 O   0  0  0  0  0  0  0  0  0  0  0  0
   24.2826    8.8316    0.4438 C   0  0  0  0  0  0  0  0  0  0  0  0
   22.9793    9.5193   -2.8392 C   0  0  0  0  0  0  0  0  0  0  0  0
   23.5005    9.6451   -0.7129 C   0  0  1  0  0  0  0  0  0  0  0  0
   29.4322    6.1328    9.2508 F   0  0  0  0  0  0  0  0  0  0  0  0
  1  2  1  6  0  0  0
  1 10  1  0  0  0  0
  1  3  1  0  0  0  0
  3  4  1  6  0  0  0
  3  6  1  0  0  0  0
  5 46  2  0  0  0  0
  6 42  1  1  0  0  0
  6  8  1  0  0  0  0
  7 47  1  0  0  0  0
  8  9  1  0  0  0  0
  8 49  1  1  0  0  0
  9 10  1  0  0  0  0
  9 11  1  1  0  0  0
 11 12  1  0  0  0  0
 13 14  1  6  0  0  0
 13 15  1  0  0  0  0
 13 21  1  0  0  0  0
 14 46  1  0  0  0  0
 15 16  1  0  0  0  0
 16 17  1  1  0  0  0
 16 18  1  0  0  0  0
 18  2  1  1  0  0  0
 18 19  1  0  0  0  0
 19 20  1  1  0  0  0
 19 21  1  0  0  0  0
 21 22  1  6  0  0  0
 23 20  1  1  0  0  0
 23 24  1  0  0  0  0
 23 28  1  0  0  0  0
 24 25  1  6  0  0  0
 24 26  1  0  0  0  0
 26 27  1  0  0  0  0
 26 32  1  6  0  0  0
 27 28  1  0  0  0  0
 27 29  1  1  0  0  0
 29 30  1  0  0  0  0
 31 32  1  6  0  0  0
 31 33  1  0  0  0  0
 31 39  1  0  0  0  0
 33 36  1  0  0  0  0
 33 41  1  6  0  0  0
 34 40  1  0  0  0  0
 35 48  1  0  0  0  0
 36 37  1  0  0  0  0
 36 45  1  1  0  0  0
 37 38  1  0  0  0  0
 37 44  1  6  0  0  0
 38 39  1  0  0  0  0
 38 40  1  6  0  0  0
 43 47  1  0  0  0  0
 46 48  1  0  0  0  0
 48 43  1  6  0  0  0
M  END
>  <CHROM.1>
-141.18079916,-64.18588457,-65.30451950,-73.64297434,175.11132027,177.94394467
78.61525837,63.58175657,-174.15607023,-178.89291119,-170.10454023,-75.27812560
145.87054203,30.14742711,8.70367629,2.36967220,-2.62195574,-0.06853476,-1.21161683

>  <Name>
ligand

>  <RI>
0

>  <Rbt.Current_Directory>
/home/itssahil/PROJECTS/Mol_Feturizer/New_Systems/rnas/4PDQ

>  <Rbt.Executable>
rbdock ($Id: //depot/dev/client3/rdock/2013.1/src/exe/rbdock.cxx#4 $)

>  <Rbt.Library>
libRbt.so (2013.1, Build901 2013/11/27)

>  <Rbt.Parameter_File>
/export/apps/rDock/src/rDock_2013.1_src/data/scripts/dock_solv.prm

>  <Rbt.Receptor>
prm/pocket_docking_6.prm

>  <SCORE>
-14.6387

>  <SCORE.INTER>
-5.38076

>  <SCORE.INTER.CONST>
1

>  <SCORE.INTER.POLAR>
0

>  <SCORE.INTER.ROT>
13

>  <SCORE.INTER.SOLV>
17.8406

>  <SCORE.INTER.VDW>
-21.8007

>  <SCORE.INTER.norm>
-0.109811

>  <SCORE.INTRA>
-9.25794

>  <SCORE.INTRA.DIHEDRAL>
-24.3418

>  <SCORE.INTRA.DIHEDRAL.0>
34.5115

>  <SCORE.INTRA.POLAR>
0

>  <SCORE.INTRA.POLAR.0>
0

>  <SCORE.INTRA.REPUL>
0

>  <SCORE.INTRA.REPUL.0>
0

>  <SCORE.INTRA.SOLV>
-2.3499

>  <SCORE.INTRA.SOLV.lig_0>
-122.812

>  <SCORE.INTRA.VDW>
4.08793

>  <SCORE.INTRA.VDW.0>
-7.46208

>  <SCORE.INTRA.norm>
-0.188938

>  <SCORE.RESTR>
0

>  <SCORE.RESTR.CAVITY>
0

>  <SCORE.RESTR.norm>
0

>  <SCORE.SYSTEM>
0

>  <SCORE.SYSTEM.CONST>
0

>  <SCORE.SYSTEM.DIHEDRAL>
0

>  <SCORE.SYSTEM.SOLV>
0

>  <SCORE.SYSTEM.norm>
0

>  <SCORE.heavy>
49

>  <SCORE.norm>
-0.298749

>  <RMSD>
10.678

$$$$
ligand
 OpenBabel11021811513D
libRbt.so/2013.1/901 2013/11/27
 49 52  0  0  0  0  0  0  0  0999 V2000
   22.8000   18.1584    9.2157 C   0  0  2  0  0  0  0  0  0  0  0  0
   24.0989   17.6491    9.2905 O   0  0  0  0  0  0  0  0  0  0  0  0
   21.7881   17.1252    9.8366 C   0  0  2  0  0  0  0  0  0  0  0  0
   22.1711   16.8607   11.2843 N   0  0  0  0  0  0  0  0  0  0  0  0
   26.3798   16.5144   14.4301 O   0  0  0  0  0  0  0  0  0  0  0  0
   21.7758   15.8191    9.0085 C   0  0  2  0  0  0  0  0  0  0  0  0
   29.0933   13.0470   15.9000 N   0  0  0  0  0  0  0  0  0  0  0  0
   21.4059   16.1142    7.5464 C   0  0  2  0  0  0  0  0  0  0  0  0
   22.4050   17.1559    6.8858 C   0  0  2  0  0  0  0  0  0  0  0  0
   22.4246   18.4070    7.7659 O   0  0  0  0  0  0  0  0  0  0  0  0
   21.9919   17.4921    5.4237 C   0  0  0  0  0  0  0  0  0  0  0  0
   22.7805   18.5084    4.8242 N   0  0  0  0  0  0  0  0  0  0  0  0
   27.5091   16.5838   11.7479 C   0  0  2  0  0  0  0  0  0  0  0  0
   28.3214   16.3169   12.9709 N   0  0  0  0  0  0  0  0  0  0  0  0
   26.7242   17.9616   11.9970 C   0  0  0  0  0  0  0  0  0  0  0  0
   25.8557   18.3338   10.7379 C   0  0  2  0  0  0  0  0  0  0  0  0
   25.1156   19.5844   10.9617 N   0  0  0  0  0  0  0  0  0  0  0  0
   24.8361   17.2156   10.4430 C   0  0  2  0  0  0  0  0  0  0  0  0
   25.5781   15.8403   10.1964 C   0  0  2  0  0  0  0  0  0  0  0  0
   24.5237   14.8452    9.9176 O   0  0  0  0  0  0  0  0  0  0  0  0
   26.4071   15.4498   11.5237 C   0  0  1  0  0  0  0  0  0  0  0  0
   27.0456   14.2344   11.2896 O   0  0  0  0  0  0  0  0  0  0  0  0
   24.6898   13.6071    9.5977 C   0  0  1  0  0  0  0  0  0  0  0  0
   23.4598   12.9065    8.9490 C   0  0  2  0  0  0  0  0  0  0  0  0
   22.7073   12.3239    9.9660 O   0  0  0  0  0  0  0  0  0  0  0  0
   24.1773   11.8944    8.1560 C   0  0  1  0  0  0  0  0  0  0  0  0
   25.4615   12.5575    7.5691 C   0  0  2  0  0  0  0  0  0  0  0  0
   25.8016   13.3522    8.6787 O   0  0  0  0  0  0  0  0  0  0  0  0
   25.3622   13.2446    6.2064 C   0  0  0  0  0  0  0  0  0  0  0  0
   24.7070   12.3297    5.3482 O   0  0  0  0  0  0  0  0  0  0  0  0
   25.5543   10.8979    9.9264 C   0  0  2  0  0  0  0  0  0  0  0  0
   24.4838   10.7631    9.0901 O   0  0  0  0  0  0  0  0  0  0  0  0
   26.1564    9.5727   10.2902 C   0  0  1  0  0  0  0  0  0  0  0  0
   24.7547   11.9797   14.2714 N   0  0  0  0  0  0  0  0  0  0  0  0
   29.0326   17.2221   16.1068 O   0  0  0  0  0  0  0  0  0  0  0  0
   27.3516    9.7993   11.2953 C   0  0  2  0  0  0  0  0  0  0  0  0
   26.9419   10.5727   12.5963 C   0  0  1  0  0  0  0  0  0  0  0  0
   26.3749   11.8469   12.2214 C   0  0  1  0  0  0  0  0  0  0  0  0
   25.2223   11.6564   11.2537 O   0  0  0  0  0  0  0  0  0  0  0  0
   25.9034   12.6498   13.5121 C   0  0  0  0  0  0  0  0  0  0  0  0
   25.1948    8.7648   10.9297 N   0  0  0  0  0  0  0  0  0  0  0  0
   21.0053   15.1021    9.4543 O   0  0  0  0  0  0  0  0  0  0  0  0
   27.9182   15.2610   16.3750 C   0  0  0  0  0  0  0  0  0  0  0  0
   26.1435    9.9579   13.1459 O   0  0  0  0  0  0  0  0  0  0  0  0
   28.1477   10.4395   10.7665 O   0  0  0  0  0  0  0  0  0  0  0  0
   27.5945   16.3182   14.2826 C   0  0  0  0  0  0  0  0  0  0  0  0
   27.9988   13.9469   15.9716 C   0  0  0  0  0  0  0  0  0  0  0  0
   28.6029   16.0027   15.5053 C   0  0  1  0  0  0  0  0  0  0  0  0
   20.1075   16.6499    7.4796 F   0  0  0  0  0  0  0  0  0  0  0  0
  1  2  1  6  0  0  0
  1 10  1  0  0  0  0
  1  3  1  0  0  0  0
  3  4  1  1  0  0  0
  3  6  1  0  0  0  0
  5 46  2  0  0  0  0
  6 42  1  1  0  0  0
  6  8  1  0  0  0  0
  7 47  1  0  0  0  0
  8  9  1  0  0  0  0
  8 49  1  1  0  0  0
  9 10  1  0  0  0  0
  9 11  1  6  0  0  0
 11 12  1  0  0  0  0
 13 14  1  1  0  0  0
 13 15  1  0  0  0  0
 13 21  1  0  0  0  0
 14 46  1  0  0  0  0
 15 16  1  0  0  0  0
 16 17  1  1  0  0  0
 16 18  1  0  0  0  0
 18  2  1  6  0  0  0
 18 19  1  0  0  0  0
 19 20  1  1  0  0  0
 19 21  1  0  0  0  0
 21 22  1  6  0  0  0
 23 20  1  6  0  0  0
 23 24  1  0  0  0  0
 23 28  1  0  0  0  0
 24 25  1  1  0  0  0
 24 26  1  0  0  0  0
 26 27  1  0  0  0  0
 26 32  1  1  0  0  0
 27 28  1  0  0  0  0
 27 29  1  6  0  0  0
 29 30  1  0  0  0  0
 31 32  1  1  0  0  0
 31 33  1  0  0  0  0
 31 39  1  0  0  0  0
 33 36  1  0  0  0  0
 33 41  1  1  0  0  0
 34 40  1  0  0  0  0
 35 48  1  0  0  0  0
 36 37  1  0  0  0  0
 36 45  1  6  0  0  0
 37 38  1  0  0  0  0
 37 44  1  6  0  0  0
 38 39  1  0  0  0  0
 38 40  1  1  0  0  0
 43 47  1  0  0  0  0
 46 48  1  0  0  0  0
 48 43  1  1  0  0  0
M  END
>  <CHROM.1>
-57.03497906,-104.56862840,174.67885812,53.59508183,176.40128382,-162.19126454
-79.94986402,-48.53559424,-152.12793973,-65.01305040,66.55625018,-156.00130998
-84.27527033,25.10216134,14.49721185,10.62935087,-2.98020556,0.95201148,-2.87494772

>  <Name>
ligand

>  <RI>
0

>  <Rbt.Current_Directory>
/home/itssahil/PROJECTS/Mol_Feturizer/New_Systems/rnas/4PDQ

>  <Rbt.Executable>
rbdock ($Id: //depot/dev/client3/rdock/2013.1/src/exe/rbdock.cxx#4 $)

>  <Rbt.Library>
libRbt.so (2013.1, Build901 2013/11/27)

>  <Rbt.Parameter_File>
/export/apps/rDock/src/rDock_2013.1_src/data/scripts/dock_solv.prm

>  <Rbt.Receptor>
prm/blind_docking_40.prm

>  <SCORE>
-0.940425

>  <SCORE.INTER>
-1.04607

>  <SCORE.INTER.CONST>
1

>  <SCORE.INTER.POLAR>
0

>  <SCORE.INTER.ROT>
13

>  <SCORE.INTER.SOLV>
36.8117

>  <SCORE.INTER.VDW>
-25.2346

>  <SCORE.INTER.norm>
-0.0213483

>  <SCORE.INTRA>
-2.90534

>  <SCORE.INTRA.DIHEDRAL>
-17.3165

>  <SCORE.INTRA.DIHEDRAL.0>
34.5115

>  <SCORE.INTRA.POLAR>
0

>  <SCORE.INTRA.POLAR.0>
0

>  <SCORE.INTRA.REPUL>
0

>  <SCORE.INTRA.REPUL.0>
0

>  <SCORE.INTRA.SOLV>
4.36078

>  <SCORE.INTRA.SOLV.lig_0>
-122.812

>  <SCORE.INTRA.VDW>
3.57251

>  <SCORE.INTRA.VDW.0>
-7.46208

>  <SCORE.INTRA.norm>
-0.0592926

>  <SCORE.RESTR>
3.01098

>  <SCORE.RESTR.CAVITY>
3.01098

>  <SCORE.RESTR.norm>
0.0614486

>  <SCORE.SYSTEM>
0

>  <SCORE.SYSTEM.CONST>
0

>  <SCORE.SYSTEM.DIHEDRAL>
0

>  <SCORE.SYSTEM.SOLV>
0

>  <SCORE.SYSTEM.norm>
0

>  <SCORE.heavy>
49

>  <SCORE.norm>
-0.0191923

>  <RMSD>
10.681

$$$$
ligand
 OpenBabel11021811513D
libRbt.so/2013.1/901 2013/11/27
 49 52  0  0  0  0  0  0  0  0999 V2000
   25.8982   14.2335    7.9470 C   0  0  2  0  0  0  0  0  0  0  0  0
   25.4603   13.0435    8.5335 O   0  0  0  0  0  0  0  0  0  0  0  0
   25.4401   14.2836    6.4420 C   0  0  2  0  0  0  0  0  0  0  0  0
   23.9237   14.1885    6.3792 N   0  0  0  0  0  0  0  0  0  0  0  0
   28.5787    9.9269   12.2022 O   0  0  0  0  0  0  0  0  0  0  0  0
   26.1107   13.1463    5.6366 C   0  0  2  0  0  0  0  0  0  0  0  0
   29.0151    5.9057   12.2204 N   0  0  0  0  0  0  0  0  0  0  0  0
   27.6409   13.2518    5.7315 C   0  0  2  0  0  0  0  0  0  0  0  0
   28.1413   13.2067    7.2372 C   0  0  2  0  0  0  0  0  0  0  0  0
   27.4132   14.3117    8.0048 O   0  0  0  0  0  0  0  0  0  0  0  0
   29.6862   13.3699    7.3287 C   0  0  0  0  0  0  0  0  0  0  0  0
   30.1688   13.5266    8.6540 N   0  0  0  0  0  0  0  0  0  0  0  0
   25.7094   10.3012   11.8832 C   0  0  2  0  0  0  0  0  0  0  0  0
   26.3070    9.3792   12.8932 N   0  0  0  0  0  0  0  0  0  0  0  0
   26.3347    9.9060   10.4588 C   0  0  0  0  0  0  0  0  0  0  0  0
   25.7364   10.8190    9.3245 C   0  0  2  0  0  0  0  0  0  0  0  0
   26.3168   10.4800    8.0168 N   0  0  0  0  0  0  0  0  0  0  0  0
   26.0394   12.3020    9.6173 C   0  0  2  0  0  0  0  0  0  0  0  0
   25.4391   12.7238   11.0190 C   0  0  2  0  0  0  0  0  0  0  0  0
   25.7739   14.1501   11.2004 O   0  0  0  0  0  0  0  0  0  0  0  0
   26.1163   11.8187   12.1696 C   0  0  1  0  0  0  0  0  0  0  0  0
   25.5815   12.2100   13.3946 O   0  0  0  0  0  0  0  0  0  0  0  0
   25.2251   15.1573   10.6111 C   0  0  1  0  0  0  0  0  0  0  0  0
   23.8878   15.6570   11.2327 C   0  0  2  0  0  0  0  0  0  0  0  0
   22.8411   14.9874   10.6034 O   0  0  0  0  0  0  0  0  0  0  0  0
   23.9631   17.0657   10.8112 C   0  0  1  0  0  0  0  0  0  0  0  0
   25.4448   17.5347   10.9458 C   0  0  2  0  0  0  0  0  0  0  0  0
   26.0697   16.3503   10.5157 O   0  0  0  0  0  0  0  0  0  0  0  0
   25.8956   18.1325   12.2793 C   0  0  0  0  0  0  0  0  0  0  0  0
   27.3041   18.2488   12.2055 O   0  0  0  0  0  0  0  0  0  0  0  0
   24.0661   17.9872    8.5388 C   0  0  2  0  0  0  0  0  0  0  0  0
   23.4660   17.1125    9.3981 O   0  0  0  0  0  0  0  0  0  0  0  0
   23.1482   18.4069    7.4287 C   0  0  1  0  0  0  0  0  0  0  0  0
   27.1780   16.7172    5.2126 N   0  0  0  0  0  0  0  0  0  0  0  0
   28.0687    8.8370   15.3681 O   0  0  0  0  0  0  0  0  0  0  0  0
   23.9200   19.3735    6.4488 C   0  0  2  0  0  0  0  0  0  0  0  0
   25.2283   18.7498    5.8504 C   0  0  1  0  0  0  0  0  0  0  0  0
   26.0986   18.3634    6.9362 C   0  0  1  0  0  0  0  0  0  0  0  0
   25.3792   17.4328    7.8941 O   0  0  0  0  0  0  0  0  0  0  0  0
   27.4237   17.6836    6.3748 C   0  0  0  0  0  0  0  0  0  0  0  0
   22.7334   17.2787    6.6928 N   0  0  0  0  0  0  0  0  0  0  0  0
   25.7949   13.2287    4.5413 O   0  0  0  0  0  0  0  0  0  0  0  0
   27.5818    7.1544   13.9218 C   0  0  0  0  0  0  0  0  0  0  0  0
   24.9414   17.8130    5.2525 O   0  0  0  0  0  0  0  0  0  0  0  0
   24.2392   20.3054    7.0429 O   0  0  0  0  0  0  0  0  0  0  0  0
   27.8035    9.2925   12.9319 C   0  0  0  0  0  0  0  0  0  0  0  0
   28.4310    6.1611   13.4879 C   0  0  0  0  0  0  0  0  0  0  0  0
   28.2960    8.2680   14.0805 C   0  0  1  0  0  0  0  0  0  0  0  0
   28.0737   14.4626    5.1623 F   0  0  0  0  0  0  0  0  0  0  0  0
  1  2  1  6  0  0  0
  1 10  1  0  0  0  0
  1  3  1  0  0  0  0
  3  4  1  1  0  0  0
  3  6  1  0  0  0  0
  5 46  2  0  0  0  0
  6 42  1  6  0  0  0
  6  8  1  0  0  0  0
  7 47  1  0  0  0  0
  8  9  1  0  0  0  0
  8 49  1  1  0  0  0
  9 10  1  0  0  0  0
  9 11  1  6  0  0  0
 11 12  1  0  0  0  0
 13 14  1  1  0  0  0
 13 15  1  0  0  0  0
 13 21  1  0  0  0  0
 14 46  1  0  0  0  0
 15 16  1  0  0  0  0
 16 17  1  6  0  0  0
 16 18  1  0  0  0  0
 18  2  1  6  0  0  0
 18 19  1  0  0  0  0
 19 20  1  1  0  0  0
 19 21  1  0  0  0  0
 21 22  1  1  0  0  0
 23 20  1  1  0  0  0
 23 24  1  0  0  0  0
 23 28  1  0  0  0  0
 24 25  1  6  0  0  0
 24 26  1  0  0  0  0
 26 27  1  0  0  0  0
 26 32  1  6  0  0  0
 27 28  1  0  0  0  0
 27 29  1  1  0  0  0
 29 30  1  0  0  0  0
 31 32  1  6  0  0  0
 31 33  1  0  0  0  0
 31 39  1  0  0  0  0
 33 36  1  0  0  0  0
 33 41  1  6  0  0  0
 34 40  1  0  0  0  0
 35 48  1  0  0  0  0
 36 37  1  0  0  0  0
 36 45  1  1  0  0  0
 37 38  1  0  0  0  0
 37 44  1  1  0  0  0
 38 39  1  0  0  0  0
 38 40  1  6  0  0  0
 43 47  1  0  0  0  0
 46 48  1  0  0  0  0
 48 43  1  1  0  0  0
M  END
>  <CHROM.1>
151.69487706,-147.32895646,171.57310136,53.04692330,74.55945776,82.27663585
-143.72758293,170.01728279,-153.57140517,-41.66986825,-76.14418874,-129.10781220
107.76797873,26.12020358,13.99749344,9.33336510,-2.15312588,-1.12565648,2.03955825

>  <Name>
ligand

>  <RI>
0

>  <Rbt.Current_Directory>
/home/itssahil/PROJECTS/Mol_Feturizer/New_Systems/rnas/4PDQ

>  <Rbt.Executable>
rbdock ($Id: //depot/dev/client3/rdock/2013.1/src/exe/rbdock.cxx#4 $)

>  <Rbt.Library>
libRbt.so (2013.1, Build901 2013/11/27)

>  <Rbt.Parameter_File>
/export/apps/rDock/src/rDock_2013.1_src/data/scripts/dock_solv.prm

>  <Rbt.Receptor>
prm/blind_docking_60.prm

>  <SCORE>
6.1945

>  <SCORE.INTER>
0.459685

>  <SCORE.INTER.CONST>
1

>  <SCORE.INTER.POLAR>
0

>  <SCORE.INTER.ROT>
13

>  <SCORE.INTER.SOLV>
28.1011

>  <SCORE.INTER.VDW>
-21.3273

>  <SCORE.INTER.norm>
0.00938132

>  <SCORE.INTRA>
2.15999

>  <SCORE.INTRA.DIHEDRAL>
-7.73232

>  <SCORE.INTRA.DIHEDRAL.0>
34.5115

>  <SCORE.INTRA.POLAR>
0

>  <SCORE.INTRA.POLAR.0>
0

>  <SCORE.INTRA.REPUL>
0.0496868

>  <SCORE.INTRA.REPUL.0>
0

>  <SCORE.INTRA.SOLV>
8.13597

>  <SCORE.INTRA.SOLV.lig_0>
-122.812

>  <SCORE.INTRA.VDW>
1.70974

>  <SCORE.INTRA.VDW.0>
-7.46208

>  <SCORE.INTRA.norm>
0.0440815

>  <SCORE.RESTR>
3.57482

>  <SCORE.RESTR.CAVITY>
3.57482

>  <SCORE.RESTR.norm>
0.0729555

>  <SCORE.SYSTEM>
0

>  <SCORE.SYSTEM.CONST>
0

>  <SCORE.SYSTEM.DIHEDRAL>
0

>  <SCORE.SYSTEM.SOLV>
0

>  <SCORE.SYSTEM.norm>
0

>  <SCORE.heavy>
49

>  <SCORE.norm>
0.126418

>  <RMSD>
10.687

$$$$
ligand
 OpenBabel11021811513D
libRbt.so/2013.1/901 2013/11/27
 49 52  0  0  0  0  0  0  0  0999 V2000
   25.7848   17.5801    9.8059 C   0  0  2  0  0  0  0  0  0  0  0  0
   24.8246   16.5955   10.0520 O   0  0  0  0  0  0  0  0  0  0  0  0
   25.3342   18.9373   10.4633 C   0  0  2  0  0  0  0  0  0  0  0  0
   25.1574   18.7318   11.9596 N   0  0  0  0  0  0  0  0  0  0  0  0
   25.5638   10.8479   10.0719 O   0  0  0  0  0  0  0  0  0  0  0  0
   24.0307   19.4476    9.8059 C   0  0  2  0  0  0  0  0  0  0  0  0
   27.5619    7.2038   13.9862 N   0  0  0  0  0  0  0  0  0  0  0  0
   24.2281   19.6284    8.2926 C   0  0  2  0  0  0  0  0  0  0  0  0
   24.6856   18.2786    7.5938 C   0  0  2  0  0  0  0  0  0  0  0  0
   25.9440   17.7850    8.3101 O   0  0  0  0  0  0  0  0  0  0  0  0
   24.9372   18.4827    6.0718 C   0  0  0  0  0  0  0  0  0  0  0  0
   26.2961   18.3343    5.6903 N   0  0  0  0  0  0  0  0  0  0  0  0
   25.4379   12.8619   12.1702 C   0  0  2  0  0  0  0  0  0  0  0  0
   25.4437   11.3948   12.4435 N   0  0  0  0  0  0  0  0  0  0  0  0
   24.0033   13.2170   11.5440 C   0  0  0  0  0  0  0  0  0  0  0  0
   23.9011   14.7594   11.2462 C   0  0  2  0  0  0  0  0  0  0  0  0
   22.5981   15.0944   10.6531 N   0  0  0  0  0  0  0  0  0  0  0  0
   25.0052   15.1868   10.2586 C   0  0  2  0  0  0  0  0  0  0  0  0
   26.4348   14.8463   10.8447 C   0  0  2  0  0  0  0  0  0  0  0  0
   27.4138   15.2975    9.8361 O   0  0  0  0  0  0  0  0  0  0  0  0
   26.5362   13.2538   11.0790 C   0  0  1  0  0  0  0  0  0  0  0  0
   27.8025   12.9739   11.5868 O   0  0  0  0  0  0  0  0  0  0  0  0
   27.7203   14.7052    8.7324 C   0  0  1  0  0  0  0  0  0  0  0  0
   28.6428   15.5082    7.7686 C   0  0  2  0  0  0  0  0  0  0  0  0
   27.8328   16.2413    6.9048 O   0  0  0  0  0  0  0  0  0  0  0  0
   29.2827   14.3737    7.0819 C   0  0  1  0  0  0  0  0  0  0  0  0
   29.5536   13.2571    8.1370 C   0  0  2  0  0  0  0  0  0  0  0  0
   28.3764   13.4054    8.8925 O   0  0  0  0  0  0  0  0  0  0  0  0
   30.8866   13.2785    8.8863 C   0  0  0  0  0  0  0  0  0  0  0  0
   31.8675   12.8462    7.9624 O   0  0  0  0  0  0  0  0  0  0  0  0
   27.0938   13.5085    6.3864 C   0  0  2  0  0  0  0  0  0  0  0  0
   28.3328   13.9383    6.0075 O   0  0  0  0  0  0  0  0  0  0  0  0
   26.4999   12.5531    5.3936 C   0  0  1  0  0  0  0  0  0  0  0  0
   22.3424   15.1941    7.7673 N   0  0  0  0  0  0  0  0  0  0  0  0
   25.0666    8.1075   10.6415 O   0  0  0  0  0  0  0  0  0  0  0  0
   25.0529   12.1387    5.8673 C   0  0  2  0  0  0  0  0  0  0  0  0
   24.0869   13.3558    6.0780 C   0  0  1  0  0  0  0  0  0  0  0  0
   24.6746   14.2549    7.0434 C   0  0  1  0  0  0  0  0  0  0  0  0
   26.0685   14.6686    6.6109 O   0  0  0  0  0  0  0  0  0  0  0  0
   23.7463   15.5300    7.2563 C   0  0  0  0  0  0  0  0  0  0  0  0
   26.3861   13.1749    4.1339 N   0  0  0  0  0  0  0  0  0  0  0  0
   23.7470   20.4523   10.2712 O   0  0  0  0  0  0  0  0  0  0  0  0
   26.7808    8.6451   12.0315 C   0  0  0  0  0  0  0  0  0  0  0  0
   23.9755   13.9064    5.0770 O   0  0  0  0  0  0  0  0  0  0  0  0
   25.1467   11.6106    6.8849 O   0  0  0  0  0  0  0  0  0  0  0  0
   25.5079   10.4828   11.2548 C   0  0  0  0  0  0  0  0  0  0  0  0
   26.7711    7.5443   12.8586 C   0  0  0  0  0  0  0  0  0  0  0  0
   25.5196    8.9330   11.7123 C   0  0  1  0  0  0  0  0  0  0  0  0
   25.2133   20.6024    8.0511 F   0  0  0  0  0  0  0  0  0  0  0  0
  1  2  1  6  0  0  0
  1 10  1  0  0  0  0
  1  3  1  0  0  0  0
  3  4  1  1  0  0  0
  3  6  1  0  0  0  0
  5 46  2  0  0  0  0
  6 42  1  1  0  0  0
  6  8  1  0  0  0  0
  7 47  1  0  0  0  0
  8  9  1  0  0  0  0
  8 49  1  1  0  0  0
  9 10  1  0  0  0  0
  9 11  1  6  0  0  0
 11 12  1  0  0  0  0
 13 14  1  6  0  0  0
 13 15  1  0  0  0  0
 13 21  1  0  0  0  0
 14 46  1  0  0  0  0
 15 16  1  0  0  0  0
 16 17  1  6  0  0  0
 16 18  1  0  0  0  0
 18  2  1  1  0  0  0
 18 19  1  0  0  0  0
 19 20  1  6  0  0  0
 19 21  1  0  0  0  0
 21 22  1  1  0  0  0
 23 20  1  1  0  0  0
 23 24  1  0  0  0  0
 23 28  1  0  0  0  0
 24 25  1  6  0  0  0
 24 26  1  0  0  0  0
 26 27  1  0  0  0  0
 26 32  1  6  0  0  0
 27 28  1  0  0  0  0
 27 29  1  1  0  0  0
 29 30  1  0  0  0  0
 31 32  1  6  0  0  0
 31 33  1  0  0  0  0
 31 39  1  0  0  0  0
 33 36  1  0  0  0  0
 33 41  1  6  0  0  0
 34 40  1  0  0  0  0
 35 48  1  0  0  0  0
 36 37  1  0  0  0  0
 36 45  1  1  0  0  0
 37 38  1  0  0  0  0
 37 44  1  6  0  0  0
 38 39  1  0  0  0  0
 38 40  1  6  0  0  0
 43 47  1  0  0  0  0
 46 48  1  0  0  0  0
 48 43  1  6  0  0  0
M  END
>  <CHROM.1>
-146.54440413,147.21451500,113.20192661,71.61552872,-77.01456151,171.88301587
-60.80143666,-73.88316767,-153.71980384,60.01610786,-142.56851078,-81.96996849
-23.28630167,26.04135800,14.38059154,8.94227059,1.92486024,1.02299146,-0.64366464

>  <Name>
ligand

>  <RI>
0

>  <Rbt.Current_Directory>
/home/itssahil/PROJECTS/Mol_Feturizer/New_Systems/rnas/4PDQ

>  <Rbt.Executable>
rbdock ($Id: //depot/dev/client3/rdock/2013.1/src/exe/rbdock.cxx#4 $)

>  <Rbt.Library>
libRbt.so (2013.1, Build901 2013/11/27)

>  <Rbt.Parameter_File>
/export/apps/rDock/src/rDock_2013.1_src/data/scripts/dock_solv.prm

>  <Rbt.Receptor>
prm/blind_docking_80.prm

>  <SCORE>
29.8954

>  <SCORE.INTER>
17.871

>  <SCORE.INTER.CONST>
1

>  <SCORE.INTER.POLAR>
0

>  <SCORE.INTER.ROT>
13

>  <SCORE.INTER.SOLV>
30.8568

>  <SCORE.INTER.VDW>
-10.6383

>  <SCORE.INTER.norm>
0.364714

>  <SCORE.INTRA>
8.36513

>  <SCORE.INTRA.DIHEDRAL>
-8.95002

>  <SCORE.INTRA.DIHEDRAL.0>
34.5115

>  <SCORE.INTRA.POLAR>
0

>  <SCORE.INTRA.POLAR.0>
0

>  <SCORE.INTRA.REPUL>
1.00437

>  <SCORE.INTRA.REPUL.0>
0

>  <SCORE.INTRA.SOLV>
6.62975

>  <SCORE.INTRA.SOLV.lig_0>
-122.812

>  <SCORE.INTRA.VDW>
4.5034

>  <SCORE.INTRA.VDW.0>
-7.46208

>  <SCORE.INTRA.norm>
0.170717

>  <SCORE.RESTR>
3.65929

>  <SCORE.RESTR.CAVITY>
3.65929

>  <SCORE.RESTR.norm>
0.0746793

>  <SCORE.SYSTEM>
0

>  <SCORE.SYSTEM.CONST>
0

>  <SCORE.SYSTEM.DIHEDRAL>
0

>  <SCORE.SYSTEM.SOLV>
0

>  <SCORE.SYSTEM.norm>
0

>  <SCORE.heavy>
49

>  <SCORE.norm>
0.61011

>  <RMSD>
10.688

$$$$
ligand
 OpenBabel11021811513D
libRbt.so/2013.1/901 2013/11/27
 49 52  0  0  0  0  0  0  0  0999 V2000
   25.1081   15.4611    5.3765 C   0  0  2  0  0  0  0  0  0  0  0  0
   25.6475   16.2262    6.4136 O   0  0  0  0  0  0  0  0  0  0  0  0
   24.0971   14.4077    5.9643 C   0  0  2  0  0  0  0  0  0  0  0  0
   22.9937   15.1394    6.7124 N   0  0  0  0  0  0  0  0  0  0  0  0
   26.2196   22.1803    9.0509 O   0  0  0  0  0  0  0  0  0  0  0  0
   24.8354   13.4077    6.8845 C   0  0  2  0  0  0  0  0  0  0  0  0
   22.4346   24.8473   11.8937 N   0  0  0  0  0  0  0  0  0  0  0  0
   25.9574   12.6959    6.1124 C   0  0  2  0  0  0  0  0  0  0  0  0
   26.9976   13.7280    5.5020 C   0  0  2  0  0  0  0  0  0  0  0  0
   26.2170   14.7263    4.6450 O   0  0  0  0  0  0  0  0  0  0  0  0
   28.0993   13.0039    4.6752 C   0  0  0  0  0  0  0  0  0  0  0  0
   27.6580   12.5506    3.4049 N   0  0  0  0  0  0  0  0  0  0  0  0
   25.2346   19.4508    9.2832 C   0  0  2  0  0  0  0  0  0  0  0  0
   24.6296   20.6038   10.0123 N   0  0  0  0  0  0  0  0  0  0  0  0
   25.0225   19.7232    7.7156 C   0  0  0  0  0  0  0  0  0  0  0  0
   25.6568   18.5598    6.8657 C   0  0  2  0  0  0  0  0  0  0  0  0
   25.4513   18.7878    5.4278 N   0  0  0  0  0  0  0  0  0  0  0  0
   25.0083   17.2116    7.2383 C   0  0  2  0  0  0  0  0  0  0  0  0
   25.1959   16.9141    8.7807 C   0  0  2  0  0  0  0  0  0  0  0  0
   24.5524   15.6094    9.0319 O   0  0  0  0  0  0  0  0  0  0  0  0
   24.4812   18.0855    9.6283 C   0  0  1  0  0  0  0  0  0  0  0  0
   24.6504   17.8016   10.9812 O   0  0  0  0  0  0  0  0  0  0  0  0
   24.8681   14.7501    9.9401 C   0  0  1  0  0  0  0  0  0  0  0  0
   24.6492   15.2112   11.4112 C   0  0  2  0  0  0  0  0  0  0  0  0
   25.8278   15.8027   11.8594 O   0  0  0  0  0  0  0  0  0  0  0  0
   24.4365   13.8900   12.0255 C   0  0  1  0  0  0  0  0  0  0  0  0
   23.5909   13.0260   11.0396 C   0  0  2  0  0  0  0  0  0  0  0  0
   24.1762   13.4631    9.8376 O   0  0  0  0  0  0  0  0  0  0  0  0
   22.0668   13.0854   11.1508 C   0  0  0  0  0  0  0  0  0  0  0  0
   21.6825   14.3540   10.6552 O   0  0  0  0  0  0  0  0  0  0  0  0
   25.8765   12.0170   12.6901 C   0  0  2  0  0  0  0  0  0  0  0  0
   25.7978   13.3162   12.2785 O   0  0  0  0  0  0  0  0  0  0  0  0
   26.2713   11.9052   14.1332 C   0  0  1  0  0  0  0  0  0  0  0  0
   28.1213    7.4284   11.5845 N   0  0  0  0  0  0  0  0  0  0  0  0
   24.9377   24.3822   10.2339 O   0  0  0  0  0  0  0  0  0  0  0  0
   26.3927   10.3817   14.5260 C   0  0  2  0  0  0  0  0  0  0  0  0
   27.4033    9.5804   13.6343 C   0  0  1  0  0  0  0  0  0  0  0  0
   26.9975    9.6946   12.2530 C   0  0  1  0  0  0  0  0  0  0  0  0
   26.8729   11.1517   11.8500 O   0  0  0  0  0  0  0  0  0  0  0  0
   28.0224    8.9307   11.3049 C   0  0  0  0  0  0  0  0  0  0  0  0
   27.5273   12.5108   14.3384 N   0  0  0  0  0  0  0  0  0  0  0  0
   24.0890   12.6305    7.2654 O   0  0  0  0  0  0  0  0  0  0  0  0
   23.1849   22.9438   10.3698 C   0  0  0  0  0  0  0  0  0  0  0  0
   28.4437   10.0498   13.7560 O   0  0  0  0  0  0  0  0  0  0  0  0
   25.3623    9.8913   14.3809 O   0  0  0  0  0  0  0  0  0  0  0  0
   25.2532   21.9496    9.7915 C   0  0  0  0  0  0  0  0  0  0  0  0
   22.4708   23.5188   11.3972 C   0  0  0  0  0  0  0  0  0  0  0  0
   24.4822   23.0920   10.6353 C   0  0  1  0  0  0  0  0  0  0  0  0
   25.4109   11.9476    5.0547 F   0  0  0  0  0  0  0  0  0  0  0  0
  1  2  1  1  0  0  0
  1 10  1  0  0  0  0
  1  3  1  0  0  0  0
  3  4  1  1  0  0  0
  3  6  1  0  0  0  0
  5 46  2  0  0  0  0
  6 42  1  6  0  0  0
  6  8  1  0  0  0  0
  7 47  1  0  0  0  0
  8  9  1  0  0  0  0
  8 49  1  6  0  0  0
  9 10  1  0  0  0  0
  9 11  1  6  0  0  0
 11 12  1  0  0  0  0
 13 14  1  1  0  0  0
 13 15  1  0  0  0  0
 13 21  1  0  0  0  0
 14 46  1  0  0  0  0
 15 16  1  0  0  0  0
 16 17  1  6  0  0  0
 16 18  1  0  0  0  0
 18  2  1  6  0  0  0
 18 19  1  0  0  0  0
 19 20  1  1  0  0  0
 19 21  1  0  0  0  0
 21 22  1  1  0  0  0
 23 20  1  6  0  0  0
 23 24  1  0  0  0  0
 23 28  1  0  0  0  0
 24 25  1  1  0  0  0
 24 26  1  0  0  0  0
 26 27  1  0  0  0  0
 26 32  1  6  0  0  0
 27 28  1  0  0  0  0
 27 29  1  6  0  0  0
 29 30  1  0  0  0  0
 31 32  1  6  0  0  0
 31 33  1  0  0  0  0
 31 39  1  0  0  0  0
 33 36  1  0  0  0  0
 33 41  1  6  0  0  0
 34 40  1  0  0  0  0
 35 48  1  0  0  0  0
 36 37  1  0  0  0  0
 36 45  1  6  0  0  0
 37 38  1  0  0  0  0
 37 44  1  6  0  0  0
 38 39  1  0  0  0  0
 38 40  1  6  0  0  0
 43 47  1  0  0  0  0
 46 48  1  0  0  0  0
 48 43  1  6  0  0  0
M  END
>  <CHROM.1>
-69.66576242,-112.78408277,75.36855480,-64.01039245,151.28832350,65.29747713
-171.79605823,72.08300274,-108.07015289,61.25831313,59.97164261,-82.74027063
9.14756289,25.31278406,15.31425481,9.59857151,-2.75593511,-1.35780054,1.77829562

>  <Name>
ligand

>  <RI>
0

>  <Rbt.Current_Directory>
/home/itssahil/PROJECTS/Mol_Feturizer/New_Systems/rnas/4PDQ

>  <Rbt.Executable>
rbdock ($Id: //depot/dev/client3/rdock/2013.1/src/exe/rbdock.cxx#4 $)

>  <Rbt.Library>
libRbt.so (2013.1, Build901 2013/11/27)

>  <Rbt.Parameter_File>
/export/apps/rDock/src/rDock_2013.1_src/data/scripts/dock_solv.prm

>  <Rbt.Receptor>
prm/blind_docking_40.prm

>  <SCORE>
4.279

>  <SCORE.INTER>
1.62658

>  <SCORE.INTER.CONST>
1

>  <SCORE.INTER.POLAR>
0

>  <SCORE.INTER.ROT>
13

>  <SCORE.INTER.SOLV>
29.0176

>  <SCORE.INTER.VDW>
-20.8548

>  <SCORE.INTER.norm>
0.0331956

>  <SCORE.INTRA>
-1.94143

>  <SCORE.INTRA.DIHEDRAL>
-12.8805

>  <SCORE.INTRA.DIHEDRAL.0>
34.5115

>  <SCORE.INTRA.POLAR>
0

>  <SCORE.INTRA.POLAR.0>
0

>  <SCORE.INTRA.REPUL>
0

>  <SCORE.INTRA.REPUL.0>
0

>  <SCORE.INTRA.SOLV>
3.22444

>  <SCORE.INTRA.SOLV.lig_0>
-122.812

>  <SCORE.INTRA.VDW>
2.88659

>  <SCORE.INTRA.VDW.0>
-7.46208

>  <SCORE.INTRA.norm>
-0.0396209

>  <SCORE.RESTR>
4.59385

>  <SCORE.RESTR.CAVITY>
4.59385

>  <SCORE.RESTR.norm>
0.093752

>  <SCORE.SYSTEM>
0

>  <SCORE.SYSTEM.CONST>
0

>  <SCORE.SYSTEM.DIHEDRAL>
0

>  <SCORE.SYSTEM.SOLV>
0

>  <SCORE.SYSTEM.norm>
0

>  <SCORE.heavy>
49

>  <SCORE.norm>
0.0873266

>  <RMSD>
10.716

$$$$
ligand
 OpenBabel11021811513D
libRbt.so/2013.1/901 2013/11/27
 49 52  0  0  0  0  0  0  0  0999 V2000
   24.2849   12.3772    8.4491 C   0  0  2  0  0  0  0  0  0  0  0  0
   25.0599   12.2901    9.6083 O   0  0  0  0  0  0  0  0  0  0  0  0
   25.0861   13.1423    7.3311 C   0  0  2  0  0  0  0  0  0  0  0  0
   26.3813   12.3976    7.0480 N   0  0  0  0  0  0  0  0  0  0  0  0
   26.2085    6.3520   11.7634 O   0  0  0  0  0  0  0  0  0  0  0  0
   25.3575   14.6014    7.7658 C   0  0  2  0  0  0  0  0  0  0  0  0
   28.9908    6.0508    9.4507 N   0  0  0  0  0  0  0  0  0  0  0  0
   24.0362   15.3267    8.0652 C   0  0  2  0  0  0  0  0  0  0  0  0
   23.1980   14.5820    9.1888 C   0  0  2  0  0  0  0  0  0  0  0  0
   23.0008   13.1326    8.7409 O   0  0  0  0  0  0  0  0  0  0  0  0
   21.8369   15.2906    9.4471 C   0  0  0  0  0  0  0  0  0  0  0  0
   21.8578   16.1901   10.5446 N   0  0  0  0  0  0  0  0  0  0  0  0
   27.0426    9.1402   11.8331 C   0  0  2  0  0  0  0  0  0  0  0  0
   27.9635    8.0031   12.1263 N   0  0  0  0  0  0  0  0  0  0  0  0
   26.3412    8.8249   10.4242 C   0  0  0  0  0  0  0  0  0  0  0  0
   25.3282    9.9695   10.0472 C   0  0  2  0  0  0  0  0  0  0  0  0
   24.6937    9.7021    8.7481 N   0  0  0  0  0  0  0  0  0  0  0  0
   26.0611   11.3229    9.9571 C   0  0  2  0  0  0  0  0  0  0  0  0
   26.7684   11.6624   11.3309 C   0  0  2  0  0  0  0  0  0  0  0  0
   27.4295   12.9691   11.1443 O   0  0  0  0  0  0  0  0  0  0  0  0
   27.8468   10.5093   11.6610 C   0  0  1  0  0  0  0  0  0  0  0  0
   28.4631   10.8300   12.8681 O   0  0  0  0  0  0  0  0  0  0  0  0
   26.8585   14.1213   11.0486 C   0  0  1  0  0  0  0  0  0  0  0  0
   25.8435   14.4679   12.1774 C   0  0  2  0  0  0  0  0  0  0  0  0
   24.5811   14.0435   11.7697 O   0  0  0  0  0  0  0  0  0  0  0  0
   25.9630   15.9349   12.1367 C   0  0  1  0  0  0  0  0  0  0  0  0
   27.4627   16.2940   11.9012 C   0  0  2  0  0  0  0  0  0  0  0  0
   27.7766   15.2616   10.9990 O   0  0  0  0  0  0  0  0  0  0  0  0
   28.3648   16.4685   13.1237 C   0  0  0  0  0  0  0  0  0  0  0  0
   27.8308   17.5536   13.8586 O   0  0  0  0  0  0  0  0  0  0  0  0
   25.3767   17.5872   10.4192 C   0  0  2  0  0  0  0  0  0  0  0  0
   25.0733   16.4019   11.0247 O   0  0  0  0  0  0  0  0  0  0  0  0
   24.4310   18.6821   10.8168 C   0  0  1  0  0  0  0  0  0  0  0  0
   26.8667   17.6575    6.0589 N   0  0  0  0  0  0  0  0  0  0  0  0
   28.2681    4.9496   13.6750 O   0  0  0  0  0  0  0  0  0  0  0  0
   24.8078   20.0051   10.0435 C   0  0  2  0  0  0  0  0  0  0  0  0
   24.8095   19.8438    8.4838 C   0  0  1  0  0  0  0  0  0  0  0  0
   25.7328   18.7927    8.1256 C   0  0  1  0  0  0  0  0  0  0  0  0
   25.3921   17.5081    8.8569 O   0  0  0  0  0  0  0  0  0  0  0  0
   25.7345   18.5639    6.5506 C   0  0  0  0  0  0  0  0  0  0  0  0
   23.1118   18.3316   10.4661 N   0  0  0  0  0  0  0  0  0  0  0  0
   25.9033   15.1464    6.9224 O   0  0  0  0  0  0  0  0  0  0  0  0
   28.3874    4.5700   11.4385 C   0  0  0  0  0  0  0  0  0  0  0  0
   23.7538   19.5407    8.1506 O   0  0  0  0  0  0  0  0  0  0  0  0
   25.8762   20.3051   10.3465 O   0  0  0  0  0  0  0  0  0  0  0  0
   27.3826    6.6226   12.0533 C   0  0  0  0  0  0  0  0  0  0  0  0
   29.1368    4.9661   10.3534 C   0  0  0  0  0  0  0  0  0  0  0  0
   28.5015    5.5039   12.3821 C   0  0  1  0  0  0  0  0  0  0  0  0
   23.2497   15.3892    6.9012 F   0  0  0  0  0  0  0  0  0  0  0  0
  1  2  1  1  0  0  0
  1 10  1  0  0  0  0
  1  3  1  0  0  0  0
  3  4  1  1  0  0  0
  3  6  1  0  0  0  0
  5 46  2  0  0  0  0
  6 42  1  6  0  0  0
  6  8  1  0  0  0  0
  7 47  1  0  0  0  0
  8  9  1  0  0  0  0
  8 49  1  6  0  0  0
  9 10  1  0  0  0  0
  9 11  1  6  0  0  0
 11 12  1  0  0  0  0
 13 14  1  6  0  0  0
 13 15  1  0  0  0  0
 13 21  1  0  0  0  0
 14 46  1  0  0  0  0
 15 16  1  0  0  0  0
 16 17  1  6  0  0  0
 16 18  1  0  0  0  0
 18  2  1  1  0  0  0
 18 19  1  0  0  0  0
 19 20  1  6  0  0  0
 19 21  1  0  0  0  0
 21 22  1  1  0  0  0
 23 20  1  1  0  0  0
 23 24  1  0  0  0  0
 23 28  1  0  0  0  0
 24 25  1  6  0  0  0
 24 26  1  0  0  0  0
 26 27  1  0  0  0  0
 26 32  1  6  0  0  0
 27 28  1  0  0  0  0
 27 29  1  1  0  0  0
 29 30  1  0  0  0  0
 31 32  1  1  0  0  0
 31 33  1  0  0  0  0
 31 39  1  0  0  0  0
 33 36  1  0  0  0  0
 33 41  1  6  0  0  0
 34 40  1  0  0  0  0
 35 48  1  0  0  0  0
 36 37  1  0  0  0  0
 36 45  1  1  0  0  0
 37 38  1  0  0  0  0
 37 44  1  1  0  0  0
 38 39  1  0  0  0  0
 38 40  1  6  0  0  0
 43 47  1  0  0  0  0
 46 48  1  0  0  0  0
 48 43  1  6  0  0  0
M  END
>  <CHROM.1>
-84.69252708,-63.46653827,-96.37179812,-51.96803105,71.79079529,51.53101405
-154.17071067,-62.01088496,-106.24405088,169.16233722,-66.52646334,-154.98049036
-74.02249735,25.89953954,13.48742257,10.14844989,1.11184493,0.98727575,-2.94768262

>  <Name>
ligand

>  <RI>
0

>  <Rbt.Current_Directory>
/home/itssahil/PROJECTS/Mol_Feturizer/New_Systems/rnas/4PDQ

>  <Rbt.Executable>
rbdock ($Id: //depot/dev/client3/rdock/2013.1/src/exe/rbdock.cxx#4 $)

>  <Rbt.Library>
libRbt.so (2013.1, Build901 2013/11/27)

>  <Rbt.Parameter_File>
/export/apps/rDock/src/rDock_2013.1_src/data/scripts/dock_solv.prm

>  <Rbt.Receptor>
prm/blind_docking_100.prm

>  <SCORE>
-0.32725

>  <SCORE.INTER>
-4.97582

>  <SCORE.INTER.CONST>
1

>  <SCORE.INTER.POLAR>
0

>  <SCORE.INTER.ROT>
13

>  <SCORE.INTER.SOLV>
25.552

>  <SCORE.INTER.VDW>
-24.1012

>  <SCORE.INTER.norm>
-0.101547

>  <SCORE.INTRA>
-0.0379336

>  <SCORE.INTRA.DIHEDRAL>
-13.3577

>  <SCORE.INTRA.DIHEDRAL.0>
34.5115

>  <SCORE.INTRA.POLAR>
0

>  <SCORE.INTRA.POLAR.0>
0

>  <SCORE.INTRA.REPUL>
0.0380225

>  <SCORE.INTRA.REPUL.0>
0

>  <SCORE.INTRA.SOLV>
10.6739

>  <SCORE.INTRA.SOLV.lig_0>
-122.812

>  <SCORE.INTRA.VDW>
1.11384

>  <SCORE.INTRA.VDW.0>
-7.46208

>  <SCORE.INTRA.norm>
-0.000774156

>  <SCORE.RESTR>
4.6865

>  <SCORE.RESTR.CAVITY>
4.6865

>  <SCORE.RESTR.norm>
0.095643

>  <SCORE.SYSTEM>
0

>  <SCORE.SYSTEM.CONST>
0

>  <SCORE.SYSTEM.DIHEDRAL>
0

>  <SCORE.SYSTEM.SOLV>
0

>  <SCORE.SYSTEM.norm>
0

>  <SCORE.heavy>
49

>  <SCORE.norm>
-0.00667856

>  <RMSD>
10.735

$$$$
ligand
 OpenBabel11021811513D
libRbt.so/2013.1/901 2013/11/27
 49 52  0  0  0  0  0  0  0  0999 V2000
   23.8537   16.5160    7.6883 C   0  0  2  0  0  0  0  0  0  0  0  0
   23.9317   15.8726    8.9260 O   0  0  0  0  0  0  0  0  0  0  0  0
   23.2897   15.5208    6.6072 C   0  0  2  0  0  0  0  0  0  0  0  0
   21.9142   15.0398    7.0420 N   0  0  0  0  0  0  0  0  0  0  0  0
   26.4562   16.8853   14.1378 O   0  0  0  0  0  0  0  0  0  0  0  0
   24.2636   14.3367    6.4048 C   0  0  2  0  0  0  0  0  0  0  0  0
   29.0244   20.2463   13.2897 N   0  0  0  0  0  0  0  0  0  0  0  0
   25.6507   14.8484    5.9856 C   0  0  2  0  0  0  0  0  0  0  0  0
   26.2522   15.8581    7.0525 C   0  0  2  0  0  0  0  0  0  0  0  0
   25.2338   16.9808    7.2591 O   0  0  0  0  0  0  0  0  0  0  0  0
   27.6314   16.4148    6.5948 C   0  0  0  0  0  0  0  0  0  0  0  0
   27.5424   17.4092    5.5863 N   0  0  0  0  0  0  0  0  0  0  0  0
   26.2899   18.3259   11.6136 C   0  0  2  0  0  0  0  0  0  0  0  0
   26.7605   18.9523   12.8837 N   0  0  0  0  0  0  0  0  0  0  0  0
   24.6891   18.4423   11.5977 C   0  0  0  0  0  0  0  0  0  0  0  0
   24.1070   17.8237   10.2722 C   0  0  2  0  0  0  0  0  0  0  0  0
   22.6391   17.9062   10.2548 N   0  0  0  0  0  0  0  0  0  0  0  0
   24.5087   16.3399   10.1542 C   0  0  2  0  0  0  0  0  0  0  0  0
   26.0834   16.1892   10.1711 C   0  0  2  0  0  0  0  0  0  0  0  0
   26.3624   14.7449   10.0464 O   0  0  0  0  0  0  0  0  0  0  0  0
   26.6478   16.7702   11.5659 C   0  0  1  0  0  0  0  0  0  0  0  0
   28.0325   16.6214   11.5646 O   0  0  0  0  0  0  0  0  0  0  0  0
   25.8900   13.7967   10.7816 C   0  0  1  0  0  0  0  0  0  0  0  0
   25.0451   14.2505   12.0084 C   0  0  2  0  0  0  0  0  0  0  0  0
   25.9017   14.3834   13.0986 O   0  0  0  0  0  0  0  0  0  0  0  0
   24.1856   13.0617   12.1343 C   0  0  1  0  0  0  0  0  0  0  0  0
   23.8112   12.5784   10.6992 C   0  0  2  0  0  0  0  0  0  0  0  0
   25.0457   12.8311   10.0742 O   0  0  0  0  0  0  0  0  0  0  0  0
   22.5533   13.1546   10.0475 C   0  0  0  0  0  0  0  0  0  0  0  0
   21.6649   13.4629   11.1050 O   0  0  0  0  0  0  0  0  0  0  0  0
   26.1902   11.6705   12.3985 C   0  0  2  0  0  0  0  0  0  0  0  0
   24.9774   12.0455   12.9004 O   0  0  0  0  0  0  0  0  0  0  0  0
   26.0844   10.4695   11.5054 C   0  0  1  0  0  0  0  0  0  0  0  0
   29.0232    9.7868   15.3170 N   0  0  0  0  0  0  0  0  0  0  0  0
   26.8057   18.3177   16.5839 O   0  0  0  0  0  0  0  0  0  0  0  0
   27.5240   10.0620   11.0040 C   0  0  2  0  0  0  0  0  0  0  0  0
   28.5370    9.7736   12.1656 C   0  0  1  0  0  0  0  0  0  0  0  0
   28.6291   10.9455   13.0045 C   0  0  1  0  0  0  0  0  0  0  0  0
   27.2562   11.3588   13.5001 O   0  0  0  0  0  0  0  0  0  0  0  0
   29.6158   10.6822   14.2252 C   0  0  0  0  0  0  0  0  0  0  0  0
   25.5468    9.3813   12.2217 N   0  0  0  0  0  0  0  0  0  0  0  0
   23.8525   13.6512    5.5879 O   0  0  0  0  0  0  0  0  0  0  0  0
   28.6569   18.8005   15.3593 C   0  0  0  0  0  0  0  0  0  0  0  0
   28.1315    8.9002   12.7903 O   0  0  0  0  0  0  0  0  0  0  0  0
   27.9548   10.9408   10.3996 O   0  0  0  0  0  0  0  0  0  0  0  0
   26.7856   18.0794   14.1028 C   0  0  0  0  0  0  0  0  0  0  0  0
   29.1449   19.8781   14.6545 C   0  0  0  0  0  0  0  0  0  0  0  0
   27.3281   18.8939   15.3887 C   0  0  1  0  0  0  0  0  0  0  0  0
   25.5618   15.5168    4.7516 F   0  0  0  0  0  0  0  0  0  0  0  0
  1  2  1  1  0  0  0
  1 10  1  0  0  0  0
  1  3  1  0  0  0  0
  3  4  1  1  0  0  0
  3  6  1  0  0  0  0
  5 46  2  0  0  0  0
  6 42  1  6  0  0  0
  6  8  1  0  0  0  0
  7 47  1  0  0  0  0
  8  9  1  0  0  0  0
  8 49  1  6  0  0  0
  9 10  1  0  0  0  0
  9 11  1  6  0  0  0
 11 12  1  0  0  0  0
 13 14  1  1  0  0  0
 13 15  1  0  0  0  0
 13 21  1  0  0  0  0
 14 46  1  0  0  0  0
 15 16  1  0  0  0  0
 16 17  1  1  0  0  0
 16 18  1  0  0  0  0
 18  2  1  6  0  0  0
 18 19  1  0  0  0  0
 19 20  1  1  0  0  0
 19 21  1  0  0  0  0
 21 22  1  6  0  0  0
 23 20  1  6  0  0  0
 23 24  1  0  0  0  0
 23 28  1  0  0  0  0
 24 25  1  1  0  0  0
 24 26  1  0  0  0  0
 26 27  1  0  0  0  0
 26 32  1  6  0  0  0
 27 28  1  0  0  0  0
 27 29  1  6  0  0  0
 29 30  1  0  0  0  0
 31 32  1  1  0  0  0
 31 33  1  0  0  0  0
 31 39  1  0  0  0  0
 33 36  1  0  0  0  0
 33 41  1  1  0  0  0
 34 40  1  0  0  0  0
 35 48  1  0  0  0  0
 36 37  1  0  0  0  0
 36 45  1  1  0  0  0
 37 38  1  0  0  0  0
 37 44  1  1  0  0  0
 38 39  1  0  0  0  0
 38 40  1  1  0  0  0
 43 47  1  0  0  0  0
 46 48  1  0  0  0  0
 48 43  1  1  0  0  0
M  END
>  <CHROM.1>
172.92237856,41.05466156,76.17185661,85.59590564,-53.36594311,-6.21415330
-57.09770412,-29.44929602,-91.77543662,-74.66373711,-66.07556006,-149.39753281
-26.98706059,25.97348627,14.76845810,10.88390512,-2.77133496,1.14452926,-3.07464655

>  <Name>
ligand

>  <RI>
0

>  <Rbt.Current_Directory>
/home/itssahil/PROJECTS/Mol_Feturizer/New_Systems/rnas/4PDQ

>  <Rbt.Executable>
rbdock ($Id: //depot/dev/client3/rdock/2013.1/src/exe/rbdock.cxx#4 $)

>  <Rbt.Library>
libRbt.so (2013.1, Build901 2013/11/27)

>  <Rbt.Parameter_File>
/export/apps/rDock/src/rDock_2013.1_src/data/scripts/dock_solv.prm

>  <Rbt.Receptor>
prm/blind_docking_80.prm

>  <SCORE>
18.8968

>  <SCORE.INTER>
7.39049

>  <SCORE.INTER.CONST>
1

>  <SCORE.INTER.POLAR>
0

>  <SCORE.INTER.ROT>
13

>  <SCORE.INTER.SOLV>
40.102

>  <SCORE.INTER.VDW>
-20.707

>  <SCORE.INTER.norm>
0.150826

>  <SCORE.INTRA>
3.61733

>  <SCORE.INTRA.DIHEDRAL>
-12.3621

>  <SCORE.INTRA.DIHEDRAL.0>
34.5115

>  <SCORE.INTRA.POLAR>
0

>  <SCORE.INTRA.POLAR.0>
0

>  <SCORE.INTRA.REPUL>
0.0147486

>  <SCORE.INTRA.REPUL.0>
0

>  <SCORE.INTRA.SOLV>
6.4663

>  <SCORE.INTRA.SOLV.lig_0>
-122.812

>  <SCORE.INTRA.VDW>
6.49149

>  <SCORE.INTRA.VDW.0>
-7.46208

>  <SCORE.INTRA.norm>
0.0738231

>  <SCORE.RESTR>
7.88899

>  <SCORE.RESTR.CAVITY>
7.88899

>  <SCORE.RESTR.norm>
0.161

>  <SCORE.SYSTEM>
0

>  <SCORE.SYSTEM.CONST>
0

>  <SCORE.SYSTEM.DIHEDRAL>
0

>  <SCORE.SYSTEM.SOLV>
0

>  <SCORE.SYSTEM.norm>
0

>  <SCORE.heavy>
49

>  <SCORE.norm>
0.385649

>  <RMSD>
10.740

$$$$
ligand
 OpenBabel11021811513D
libRbt.so/2013.1/901 2013/11/27
 49 52  0  0  0  0  0  0  0  0999 V2000
   24.9292   17.0145    6.9521 C   0  0  2  0  0  0  0  0  0  0  0  0
   25.0829   17.8701    8.0459 O   0  0  0  0  0  0  0  0  0  0  0  0
   24.9354   17.8508    5.6188 C   0  0  2  0  0  0  0  0  0  0  0  0
   26.2470   18.6133    5.5149 N   0  0  0  0  0  0  0  0  0  0  0  0
   28.2569   18.7554   13.9004 O   0  0  0  0  0  0  0  0  0  0  0  0
   23.7214   18.8080    5.5776 C   0  0  2  0  0  0  0  0  0  0  0  0
   28.5357   14.4127   16.0218 N   0  0  0  0  0  0  0  0  0  0  0  0
   22.4100   18.0170    5.7042 C   0  0  2  0  0  0  0  0  0  0  0  0
   22.3676   17.1581    7.0383 C   0  0  2  0  0  0  0  0  0  0  0  0
   23.6116   16.2680    7.0605 O   0  0  0  0  0  0  0  0  0  0  0  0
   21.0616   16.3172    7.1326 C   0  0  0  0  0  0  0  0  0  0  0  0
   19.9314   17.0597    7.5631 N   0  0  0  0  0  0  0  0  0  0  0  0
   26.4643   17.3115   12.1180 C   0  0  2  0  0  0  0  0  0  0  0  0
   26.4186   17.1835   13.6042 N   0  0  0  0  0  0  0  0  0  0  0  0
   25.5698   18.5862   11.7290 C   0  0  0  0  0  0  0  0  0  0  0  0
   25.5827   18.8107   10.1708 C   0  0  2  0  0  0  0  0  0  0  0  0
   24.7500   19.9642    9.7997 N   0  0  0  0  0  0  0  0  0  0  0  0
   25.0325   17.5653    9.4474 C   0  0  2  0  0  0  0  0  0  0  0  0
   25.8909   16.2877    9.8133 C   0  0  2  0  0  0  0  0  0  0  0  0
   25.2928   15.1607    9.0708 O   0  0  0  0  0  0  0  0  0  0  0  0
   25.8076   16.0422   11.4052 C   0  0  1  0  0  0  0  0  0  0  0  0
   26.5618   14.9105   11.7056 O   0  0  0  0  0  0  0  0  0  0  0  0
   25.5432   13.9058    9.2304 C   0  0  1  0  0  0  0  0  0  0  0  0
   25.0215   12.9646    8.1049 C   0  0  2  0  0  0  0  0  0  0  0  0
   23.7428   12.5381    8.4554 O   0  0  0  0  0  0  0  0  0  0  0  0
   26.0123   11.8845    8.2459 C   0  0  1  0  0  0  0  0  0  0  0  0
   27.4005   12.5334    8.5379 C   0  0  2  0  0  0  0  0  0  0  0  0
   26.9626   13.5746    9.3761 O   0  0  0  0  0  0  0  0  0  0  0  0
   28.2898   12.9034    7.3500 C   0  0  0  0  0  0  0  0  0  0  0  0
   29.4746   13.4507    7.8973 O   0  0  0  0  0  0  0  0  0  0  0  0
   26.4092   10.7255   10.3725 C   0  0  2  0  0  0  0  0  0  0  0  0
   25.5323   11.0127    9.3665 O   0  0  0  0  0  0  0  0  0  0  0  0
   26.7928    9.2751   10.3896 C   0  0  1  0  0  0  0  0  0  0  0  0
   25.6805   12.7172   14.3488 N   0  0  0  0  0  0  0  0  0  0  0  0
   26.1257   18.5213   16.4543 O   0  0  0  0  0  0  0  0  0  0  0  0
   27.7639    9.0050   11.6037 C   0  0  2  0  0  0  0  0  0  0  0  0
   27.1628    9.4129   12.9934 C   0  0  1  0  0  0  0  0  0  0  0  0
   26.8110   10.8130   12.9555 C   0  0  1  0  0  0  0  0  0  0  0  0
   25.8768   11.0994   11.7952 O   0  0  0  0  0  0  0  0  0  0  0  0
   26.1547   11.2612   14.3344 C   0  0  0  0  0  0  0  0  0  0  0  0
   25.6457    8.4744   10.5610 N   0  0  0  0  0  0  0  0  0  0  0  0
   23.7258   19.3732    4.5843 O   0  0  0  0  0  0  0  0  0  0  0  0
   27.0066   16.4515   16.1380 C   0  0  0  0  0  0  0  0  0  0  0  0
   26.2117    8.7953   13.1710 O   0  0  0  0  0  0  0  0  0  0  0  0
   28.7108    9.6407   11.4532 O   0  0  0  0  0  0  0  0  0  0  0  0
   27.4118   17.9902   14.3862 C   0  0  0  0  0  0  0  0  0  0  0  0
   28.1964   15.7878   15.9388 C   0  0  0  0  0  0  0  0  0  0  0  0
   27.2285   17.7551   15.9744 C   0  0  1  0  0  0  0  0  0  0  0  0
   22.2727   17.1397    4.6139 F   0  0  0  0  0  0  0  0  0  0  0  0
  1  2  1  1  0  0  0
  1 10  1  0  0  0  0
  1  3  1  0  0  0  0
  3  4  1  1  0  0  0
  3  6  1  0  0  0  0
  5 46  2  0  0  0  0
  6 42  1  6  0  0  0
  6  8  1  0  0  0  0
  7 47  1  0  0  0  0
  8  9  1  0  0  0  0
  8 49  1  6  0  0  0
  9 10  1  0  0  0  0
  9 11  1  6  0  0  0
 11 12  1  0  0  0  0
 13 14  1  1  0  0  0
 13 15  1  0  0  0  0
 13 21  1  0  0  0  0
 14 46  1  0  0  0  0
 15 16  1  0  0  0  0
 16 17  1  1  0  0  0
 16 18  1  0  0  0  0
 18  2  1  6  0  0  0
 18 19  1  0  0  0  0
 19 20  1  6  0  0  0
 19 21  1  0  0  0  0
 21 22  1  6  0  0  0
 23 20  1  6  0  0  0
 23 24  1  0  0  0  0
 23 28  1  0  0  0  0
 24 25  1  1  0  0  0
 24 26  1  0  0  0  0
 26 27  1  0  0  0  0
 26 32  1  1  0  0  0
 27 28  1  0  0  0  0
 27 29  1  6  0  0  0
 29 30  1  0  0  0  0
 31 32  1  6  0  0  0
 31 33  1  0  0  0  0
 31 39  1  0  0  0  0
 33 36  1  0  0  0  0
 33 41  1  1  0  0  0
 34 40  1  0  0  0  0
 35 48  1  0  0  0  0
 36 37  1  0  0  0  0
 36 45  1  6  0  0  0
 37 38  1  0  0  0  0
 37 44  1  6  0  0  0
 38 39  1  0  0  0  0
 38 40  1  1  0  0  0
 43 47  1  0  0  0  0
 46 48  1  0  0  0  0
 48 43  1  6  0  0  0
M  END
>  <CHROM.1>
174.73333282,167.39510305,-79.53131931,-85.68598723,-168.48537070,-166.51702149
-128.25026649,-179.37361562,-112.47420391,-176.76896020,178.16886693,-166.97118900
100.25138891,25.73374557,14.86970472,10.24053527,2.82810234,-1.17458844,0.39871559

>  <Name>
ligand

>  <RI>
0

>  <Rbt.Current_Directory>
/home/itssahil/PROJECTS/Mol_Feturizer/New_Systems/rnas/4PDQ

>  <Rbt.Executable>
rbdock ($Id: //depot/dev/client3/rdock/2013.1/src/exe/rbdock.cxx#4 $)

>  <Rbt.Library>
libRbt.so (2013.1, Build901 2013/11/27)

>  <Rbt.Parameter_File>
/export/apps/rDock/src/rDock_2013.1_src/data/scripts/dock_solv.prm

>  <Rbt.Receptor>
prm/blind_docking_40.prm

>  <SCORE>
-3.96091

>  <SCORE.INTER>
-0.919549

>  <SCORE.INTER.CONST>
1

>  <SCORE.INTER.POLAR>
0

>  <SCORE.INTER.ROT>
13

>  <SCORE.INTER.SOLV>
30.9589

>  <SCORE.INTER.VDW>
-23.1993

>  <SCORE.INTER.norm>
-0.0187663

>  <SCORE.INTRA>
-4.30375

>  <SCORE.INTRA.DIHEDRAL>
-14.7681

>  <SCORE.INTRA.DIHEDRAL.0>
34.5115

>  <SCORE.INTRA.POLAR>
0

>  <SCORE.INTRA.POLAR.0>
0

>  <SCORE.INTRA.REPUL>
0.000583618

>  <SCORE.INTRA.REPUL.0>
0

>  <SCORE.INTRA.SOLV>
-2.41351

>  <SCORE.INTRA.SOLV.lig_0>
-122.812

>  <SCORE.INTRA.VDW>
4.28411

>  <SCORE.INTRA.VDW.0>
-7.46208

>  <SCORE.INTRA.norm>
-0.0878316

>  <SCORE.RESTR>
1.26239

>  <SCORE.RESTR.CAVITY>
1.26239

>  <SCORE.RESTR.norm>
0.0257631

>  <SCORE.SYSTEM>
0

>  <SCORE.SYSTEM.CONST>
0

>  <SCORE.SYSTEM.DIHEDRAL>
0

>  <SCORE.SYSTEM.SOLV>
0

>  <SCORE.SYSTEM.norm>
0

>  <SCORE.heavy>
49

>  <SCORE.norm>
-0.0808349

>  <RMSD>
10.748

$$$$
ligand
 OpenBabel11021811513D
libRbt.so/2013.1/901 2013/11/27
 49 52  0  0  0  0  0  0  0  0999 V2000
   25.3661   12.9060    8.7162 C   0  0  2  0  0  0  0  0  0  0  0  0
   26.1384   11.7903    9.0487 O   0  0  0  0  0  0  0  0  0  0  0  0
   24.5957   12.6364    7.3704 C   0  0  2  0  0  0  0  0  0  0  0  0
   23.7113   11.4109    7.5393 N   0  0  0  0  0  0  0  0  0  0  0  0
   28.6784   11.5164   14.3782 O   0  0  0  0  0  0  0  0  0  0  0  0
   25.5955   12.4545    6.2045 C   0  0  2  0  0  0  0  0  0  0  0  0
   31.8571   12.6597   15.8638 N   0  0  0  0  0  0  0  0  0  0  0  0
   26.4903   13.6962    6.0665 C   0  0  2  0  0  0  0  0  0  0  0  0
   27.2834   14.0015    7.4072 C   0  0  2  0  0  0  0  0  0  0  0  0
   26.2604   14.1199    8.5384 O   0  0  0  0  0  0  0  0  0  0  0  0
   28.1443   15.2914    7.2780 C   0  0  0  0  0  0  0  0  0  0  0  0
   27.4050   16.4373    6.8854 N   0  0  0  0  0  0  0  0  0  0  0  0
   27.5265    9.5939   12.5204 C   0  0  2  0  0  0  0  0  0  0  0  0
   28.3898    9.2019   13.6728 N   0  0  0  0  0  0  0  0  0  0  0  0
   28.4985    9.8331   11.2656 C   0  0  0  0  0  0  0  0  0  0  0  0
   27.6627   10.2291    9.9917 C   0  0  2  0  0  0  0  0  0  0  0  0
   28.5441   10.4707    8.8398 N   0  0  0  0  0  0  0  0  0  0  0  0
   26.8563   11.5152   10.2607 C   0  0  2  0  0  0  0  0  0  0  0  0
   25.8892   11.3144   11.4966 C   0  0  2  0  0  0  0  0  0  0  0  0
   25.1632   12.5887   11.6654 O   0  0  0  0  0  0  0  0  0  0  0  0
   26.7745   10.9746   12.8013 C   0  0  1  0  0  0  0  0  0  0  0  0
   25.9069   10.8095   13.8782 O   0  0  0  0  0  0  0  0  0  0  0  0
   25.5385   13.7551   11.2636 C   0  0  1  0  0  0  0  0  0  0  0  0
   24.5769   14.9301   11.6091 C   0  0  2  0  0  0  0  0  0  0  0  0
   23.6848   15.0848   10.5507 O   0  0  0  0  0  0  0  0  0  0  0  0
   25.5670   16.0191   11.6488 C   0  0  1  0  0  0  0  0  0  0  0  0
   26.8663   15.4706   12.3156 C   0  0  2  0  0  0  0  0  0  0  0  0
   26.8518   14.1818   11.7523 O   0  0  0  0  0  0  0  0  0  0  0  0
   27.0012   15.5809   13.8350 C   0  0  0  0  0  0  0  0  0  0  0  0
   26.9011   16.9586   14.1427 O   0  0  0  0  0  0  0  0  0  0  0  0
   24.9680   17.4253    9.7286 C   0  0  2  0  0  0  0  0  0  0  0  0
   25.7809   16.4495   10.2292 O   0  0  0  0  0  0  0  0  0  0  0  0
   25.3378   18.7859   10.2417 C   0  0  1  0  0  0  0  0  0  0  0  0
   19.9499   18.6892    9.0764 N   0  0  0  0  0  0  0  0  0  0  0  0
   29.8752    8.3051   15.6630 O   0  0  0  0  0  0  0  0  0  0  0  0
   24.3295   19.8542    9.6654 C   0  0  2  0  0  0  0  0  0  0  0  0
   22.8287   19.5487   10.0013 C   0  0  1  0  0  0  0  0  0  0  0  0
   22.4942   18.2402    9.4897 C   0  0  1  0  0  0  0  0  0  0  0  0
   23.4504   17.1935   10.0293 O   0  0  0  0  0  0  0  0  0  0  0  0
   20.9884   17.8691    9.8472 C   0  0  0  0  0  0  0  0  0  0  0  0
   25.2465   18.8127   11.6479 N   0  0  0  0  0  0  0  0  0  0  0  0
   25.0122   12.3011    5.2337 O   0  0  0  0  0  0  0  0  0  0  0  0
   31.0267   10.2621   15.5988 C   0  0  0  0  0  0  0  0  0  0  0  0
   22.7076   19.5436   11.1427 O   0  0  0  0  0  0  0  0  0  0  0  0
   24.4197   19.8495    8.5186 O   0  0  0  0  0  0  0  0  0  0  0  0
   28.9116   10.3099   14.5382 C   0  0  0  0  0  0  0  0  0  0  0  0
   30.9759   11.5630   16.0471 C   0  0  0  0  0  0  0  0  0  0  0  0
   29.8150    9.7274   15.7449 C   0  0  1  0  0  0  0  0  0  0  0  0
   25.7049   14.8206    5.7565 F   0  0  0  0  0  0  0  0  0  0  0  0
  1  2  1  6  0  0  0
  1 10  1  0  0  0  0
  1  3  1  0  0  0  0
  3  4  1  1  0  0  0
  3  6  1  0  0  0  0
  5 46  2  0  0  0  0
  6 42  1  6  0  0  0
  6  8  1  0  0  0  0
  7 47  1  0  0  0  0
  8  9  1  0  0  0  0
  8 49  1  1  0  0  0
  9 10  1  0  0  0  0
  9 11  1  6  0  0  0
 11 12  1  0  0  0  0
 13 14  1  1  0  0  0
 13 15  1  0  0  0  0
 13 21  1  0  0  0  0
 14 46  1  0  0  0  0
 15 16  1  0  0  0  0
 16 17  1  6  0  0  0
 16 18  1  0  0  0  0
 18  2  1  6  0  0  0
 18 19  1  0  0  0  0
 19 20  1  1  0  0  0
 19 21  1  0  0  0  0
 21 22  1  1  0  0  0
 23 20  1  1  0  0  0
 23 24  1  0  0  0  0
 23 28  1  0  0  0  0
 24 25  1  6  0  0  0
 24 26  1  0  0  0  0
 26 27  1  0  0  0  0
 26 32  1  6  0  0  0
 27 28  1  0  0  0  0
 27 29  1  1  0  0  0
 29 30  1  0  0  0  0
 31 32  1  1  0  0  0
 31 33  1  0  0  0  0
 31 39  1  0  0  0  0
 33 36  1  0  0  0  0
 33 41  1  1  0  0  0
 34 40  1  0  0  0  0
 35 48  1  0  0  0  0
 36 37  1  0  0  0  0
 36 45  1  6  0  0  0
 37 38  1  0  0  0  0
 37 44  1  1  0  0  0
 38 39  1  0  0  0  0
 38 40  1  1  0  0  0
 43 47  1  0  0  0  0
 46 48  1  0  0  0  0
 48 43  1  6  0  0  0
M  END
>  <CHROM.1>
-170.83161368,-173.07725676,55.16004947,89.85512830,-23.11920237,-178.80590452
89.06134039,-58.61226598,75.56334153,70.11371806,-164.21118379,-163.59243179
179.11245623,26.17767423,14.04511323,10.73587742,3.12714646,-1.02692811,0.94680356

>  <Name>
ligand

>  <RI>
0

>  <Rbt.Current_Directory>
/home/itssahil/PROJECTS/Mol_Feturizer/New_Systems/rnas/4PDQ

>  <Rbt.Executable>
rbdock ($Id: //depot/dev/client3/rdock/2013.1/src/exe/rbdock.cxx#4 $)

>  <Rbt.Library>
libRbt.so (2013.1, Build901 2013/11/27)

>  <Rbt.Parameter_File>
/export/apps/rDock/src/rDock_2013.1_src/data/scripts/dock_solv.prm

>  <Rbt.Receptor>
prm/blind_docking_80.prm

>  <SCORE>
16.4895

>  <SCORE.INTER>
0.782798

>  <SCORE.INTER.CONST>
1

>  <SCORE.INTER.POLAR>
0

>  <SCORE.INTER.ROT>
13

>  <SCORE.INTER.SOLV>
32.3316

>  <SCORE.INTER.VDW>
-22.522

>  <SCORE.INTER.norm>
0.0159755

>  <SCORE.INTRA>
7.34148

>  <SCORE.INTRA.DIHEDRAL>
-19.1138

>  <SCORE.INTRA.DIHEDRAL.0>
34.5115

>  <SCORE.INTRA.POLAR>
0

>  <SCORE.INTRA.POLAR.0>
0

>  <SCORE.INTRA.REPUL>
0.760863

>  <SCORE.INTRA.REPUL.0>
0

>  <SCORE.INTRA.SOLV>
3.17392

>  <SCORE.INTRA.SOLV.lig_0>
-122.812

>  <SCORE.INTRA.VDW>
11.5071

>  <SCORE.INTRA.VDW.0>
-7.46208

>  <SCORE.INTRA.norm>
0.149826

>  <SCORE.RESTR>
8.36524

>  <SCORE.RESTR.CAVITY>
8.36524

>  <SCORE.RESTR.norm>
0.170719

>  <SCORE.SYSTEM>
0

>  <SCORE.SYSTEM.CONST>
0

>  <SCORE.SYSTEM.DIHEDRAL>
0

>  <SCORE.SYSTEM.SOLV>
0

>  <SCORE.SYSTEM.norm>
0

>  <SCORE.heavy>
49

>  <SCORE.norm>
0.336521

>  <RMSD>
10.752

$$$$
ligand
 OpenBabel11021811513D
libRbt.so/2013.1/901 2013/11/27
 49 52  0  0  0  0  0  0  0  0999 V2000
   27.7314   14.5854    8.6995 C   0  0  2  0  0  0  0  0  0  0  0  0
   26.5208   13.9275    8.9311 O   0  0  0  0  0  0  0  0  0  0  0  0
   27.7889   15.0816    7.2070 C   0  0  2  0  0  0  0  0  0  0  0  0
   26.6189   16.0177    6.9475 N   0  0  0  0  0  0  0  0  0  0  0  0
   27.4188   12.9711   15.2185 O   0  0  0  0  0  0  0  0  0  0  0  0
   27.7732   13.8766    6.2377 C   0  0  2  0  0  0  0  0  0  0  0  0
   23.3197    9.3115   17.4764 N   0  0  0  0  0  0  0  0  0  0  0  0
   28.9521   12.9358    6.5321 C   0  0  2  0  0  0  0  0  0  0  0  0
   28.9289   12.4153    8.0315 C   0  0  2  0  0  0  0  0  0  0  0  0
   28.8910   13.6382    8.9499 O   0  0  0  0  0  0  0  0  0  0  0  0
   30.1555   11.5081    8.3380 C   0  0  0  0  0  0  0  0  0  0  0  0
   30.3373   10.4548    7.4045 N   0  0  0  0  0  0  0  0  0  0  0  0
   26.7694   11.7352   12.6640 C   0  0  2  0  0  0  0  0  0  0  0  0
   26.3560   11.1625   13.9786 N   0  0  0  0  0  0  0  0  0  0  0  0
   26.2950   13.2685   12.6499 C   0  0  0  0  0  0  0  0  0  0  0  0
   26.7153   13.9606   11.2999 C   0  0  2  0  0  0  0  0  0  0  0  0
   26.2683   15.3609   11.2664 N   0  0  0  0  0  0  0  0  0  0  0  0
   26.0831   13.2233   10.1025 C   0  0  2  0  0  0  0  0  0  0  0  0
   26.5280   11.7051   10.0892 C   0  0  2  0  0  0  0  0  0  0  0  0
   25.8812   11.0945    8.9110 O   0  0  0  0  0  0  0  0  0  0  0  0
   26.0286   11.0036   11.4530 C   0  0  1  0  0  0  0  0  0  0  0  0
   26.4223    9.6681   11.4185 O   0  0  0  0  0  0  0  0  0  0  0  0
   26.3275   10.1150    8.2009 C   0  0  1  0  0  0  0  0  0  0  0  0
   26.5446    8.7737    8.9614 C   0  0  2  0  0  0  0  0  0  0  0  0
   27.8545    8.7512    9.4342 O   0  0  0  0  0  0  0  0  0  0  0  0
   26.3589    7.8485    7.8312 C   0  0  1  0  0  0  0  0  0  0  0  0
   25.2016    8.3960    6.9399 C   0  0  2  0  0  0  0  0  0  0  0  0
   25.5005    9.7666    7.0431 O   0  0  0  0  0  0  0  0  0  0  0  0
   23.7726    7.9542    7.2586 C   0  0  0  0  0  0  0  0  0  0  0  0
   23.7449    6.5495    7.0886 O   0  0  0  0  0  0  0  0  0  0  0  0
   27.8132    6.8697    6.1135 C   0  0  2  0  0  0  0  0  0  0  0  0
   27.6709    7.7931    7.1087 O   0  0  0  0  0  0  0  0  0  0  0  0
   29.1658    6.9400    5.4679 C   0  0  1  0  0  0  0  0  0  0  0  0
   25.5583    5.0906    1.7533 N   0  0  0  0  0  0  0  0  0  0  0  0
   26.4027   12.0409   17.6697 O   0  0  0  0  0  0  0  0  0  0  0  0
   29.2423    5.8843    4.2975 C   0  0  2  0  0  0  0  0  0  0  0  0
   28.1248    6.0653    3.2125 C   0  0  1  0  0  0  0  0  0  0  0  0
   26.8342    5.9842    3.8555 C   0  0  1  0  0  0  0  0  0  0  0  0
   26.7350    6.9903    4.9864 O   0  0  0  0  0  0  0  0  0  0  0  0
   25.6676    6.2068    2.7960 C   0  0  0  0  0  0  0  0  0  0  0  0
   29.3712    8.2203    4.9157 N   0  0  0  0  0  0  0  0  0  0  0  0
   27.8568   14.2603    5.1643 O   0  0  0  0  0  0  0  0  0  0  0  0
   24.9518   10.9083   16.3385 C   0  0  0  0  0  0  0  0  0  0  0  0
   28.2416    7.1064    2.7435 O   0  0  0  0  0  0  0  0  0  0  0  0
   29.0977    4.8367    4.7501 O   0  0  0  0  0  0  0  0  0  0  0  0
   26.7709   11.9147   15.2077 C   0  0  0  0  0  0  0  0  0  0  0  0
   24.5633    9.9577   17.2558 C   0  0  0  0  0  0  0  0  0  0  0  0
   26.2399   11.1794   16.5451 C   0  0  1  0  0  0  0  0  0  0  0  0
   30.1676   13.6107    6.3215 F   0  0  0  0  0  0  0  0  0  0  0  0
  1  2  1  6  0  0  0
  1 10  1  0  0  0  0
  1  3  1  0  0  0  0
  3  4  1  6  0  0  0
  3  6  1  0  0  0  0
  5 46  2  0  0  0  0
  6 42  1  6  0  0  0
  6  8  1  0  0  0  0
  7 47  1  0  0  0  0
  8  9  1  0  0  0  0
  8 49  1  1  0  0  0
  9 10  1  0  0  0  0
  9 11  1  1  0  0  0
 11 12  1  0  0  0  0
 13 14  1  1  0  0  0
 13 15  1  0  0  0  0
 13 21  1  0  0  0  0
 14 46  1  0  0  0  0
 15 16  1  0  0  0  0
 16 17  1  1  0  0  0
 16 18  1  0  0  0  0
 18  2  1  6  0  0  0
 18 19  1  0  0  0  0
 19 20  1  6  0  0  0
 19 21  1  0  0  0  0
 21 22  1  6  0  0  0
 23 20  1  1  0  0  0
 23 24  1  0  0  0  0
 23 28  1  0  0  0  0
 24 25  1  6  0  0  0
 24 26  1  0  0  0  0
 26 27  1  0  0  0  0
 26 32  1  6  0  0  0
 27 28  1  0  0  0  0
 27 29  1  1  0  0  0
 29 30  1  0  0  0  0
 31 32  1  1  0  0  0
 31 33  1  0  0  0  0
 31 39  1  0  0  0  0
 33 36  1  0  0  0  0
 33 41  1  6  0  0  0
 34 40  1  0  0  0  0
 35 48  1  0  0  0  0
 36 37  1  0  0  0  0
 36 45  1  1  0  0  0
 37 38  1  0  0  0  0
 37 44  1  1  0  0  0
 38 39  1  0  0  0  0
 38 40  1  6  0  0  0
 43 47  1  0  0  0  0
 46 48  1  0  0  0  0
 48 43  1  6  0  0  0
M  END
>  <CHROM.1>
174.41757167,33.18420462,-51.70595971,-52.18952464,149.74902203,60.37201066
171.87245254,-61.96433880,179.23133417,66.61315413,-179.52886806,-77.89733031
10.95260895,27.02784807,10.38637354,8.80833316,-1.92985617,-1.20040216,-2.35943592

>  <Name>
ligand

>  <RI>
0

>  <Rbt.Current_Directory>
/home/itssahil/PROJECTS/Mol_Feturizer/New_Systems/rnas/4PDQ

>  <Rbt.Executable>
rbdock ($Id: //depot/dev/client3/rdock/2013.1/src/exe/rbdock.cxx#4 $)

>  <Rbt.Library>
libRbt.so (2013.1, Build901 2013/11/27)

>  <Rbt.Parameter_File>
/export/apps/rDock/src/rDock_2013.1_src/data/scripts/dock_solv.prm

>  <Rbt.Receptor>
prm/pocket_docking_8.prm

>  <SCORE>
-11.7447

>  <SCORE.INTER>
-3.2403

>  <SCORE.INTER.CONST>
1

>  <SCORE.INTER.POLAR>
0

>  <SCORE.INTER.ROT>
13

>  <SCORE.INTER.SOLV>
12.7462

>  <SCORE.INTER.VDW>
-18.6756

>  <SCORE.INTER.norm>
-0.0661286

>  <SCORE.INTRA>
-8.5114

>  <SCORE.INTRA.DIHEDRAL>
-24.8436

>  <SCORE.INTRA.DIHEDRAL.0>
34.5115

>  <SCORE.INTRA.POLAR>
0

>  <SCORE.INTRA.POLAR.0>
0

>  <SCORE.INTRA.REPUL>
0

>  <SCORE.INTRA.REPUL.0>
0

>  <SCORE.INTRA.SOLV>
0.0300628

>  <SCORE.INTRA.SOLV.lig_0>
-122.812

>  <SCORE.INTRA.VDW>
3.89538

>  <SCORE.INTRA.VDW.0>
-7.46208

>  <SCORE.INTRA.norm>
-0.173702

>  <SCORE.RESTR>
0.00699982

>  <SCORE.RESTR.CAVITY>
0.00699982

>  <SCORE.RESTR.norm>
0.000142854

>  <SCORE.SYSTEM>
0

>  <SCORE.SYSTEM.CONST>
0

>  <SCORE.SYSTEM.DIHEDRAL>
0

>  <SCORE.SYSTEM.SOLV>
0

>  <SCORE.SYSTEM.norm>
0

>  <SCORE.heavy>
49

>  <SCORE.norm>
-0.239688

>  <RMSD>
10.758

$$$$
ligand
 OpenBabel11021811513D
libRbt.so/2013.1/901 2013/11/27
 49 52  0  0  0  0  0  0  0  0999 V2000
   31.4228    9.3388    4.8893 C   0  0  2  0  0  0  0  0  0  0  0  0
   30.2300    9.4924    4.1782 O   0  0  0  0  0  0  0  0  0  0  0  0
   31.2705    8.1736    5.9363 C   0  0  2  0  0  0  0  0  0  0  0  0
   30.9209    6.8877    5.2036 N   0  0  0  0  0  0  0  0  0  0  0  0
   26.1835   10.5964   -0.9703 O   0  0  0  0  0  0  0  0  0  0  0  0
   30.1965    8.5328    6.9895 C   0  0  2  0  0  0  0  0  0  0  0  0
   24.9513   14.2465   -4.4077 N   0  0  0  0  0  0  0  0  0  0  0  0
   30.5612    9.8447    7.7018 C   0  0  2  0  0  0  0  0  0  0  0  0
   30.7255   11.0449    6.6761 C   0  0  2  0  0  0  0  0  0  0  0  0
   31.7552   10.6241    5.6258 O   0  0  0  0  0  0  0  0  0  0  0  0
   31.1491   12.3567    7.3981 C   0  0  0  0  0  0  0  0  0  0  0  0
   30.1805   12.8464    8.3124 N   0  0  0  0  0  0  0  0  0  0  0  0
   28.7579   10.9074    0.3528 C   0  0  2  0  0  0  0  0  0  0  0  0
   28.2542   11.8498   -0.6889 N   0  0  0  0  0  0  0  0  0  0  0  0
   27.9536   11.2283    1.7044 C   0  0  0  0  0  0  0  0  0  0  0  0
   28.4080   10.2571    2.8570 C   0  0  2  0  0  0  0  0  0  0  0  0
   27.6925   10.5545    4.1066 N   0  0  0  0  0  0  0  0  0  0  0  0
   29.9198   10.4091    3.1184 C   0  0  2  0  0  0  0  0  0  0  0  0
   30.7430   10.1032    1.8024 C   0  0  2  0  0  0  0  0  0  0  0  0
   32.1666   10.2674    2.1572 O   0  0  0  0  0  0  0  0  0  0  0  0
   30.3060   11.1529    0.6585 C   0  0  1  0  0  0  0  0  0  0  0  0
   31.0463   10.8726   -0.4874 O   0  0  0  0  0  0  0  0  0  0  0  0
   33.1821   10.1347    1.3737 C   0  0  1  0  0  0  0  0  0  0  0  0
   34.5284   10.7035    1.9109 C   0  0  2  0  0  0  0  0  0  0  0  0
   34.6401   12.0252    1.4861 O   0  0  0  0  0  0  0  0  0  0  0  0
   35.4484    9.8176    1.1783 C   0  0  1  0  0  0  0  0  0  0  0  0
   34.8278    8.3867    1.1523 C   0  0  2  0  0  0  0  0  0  0  0  0
   33.4812    8.7555    0.9812 O   0  0  0  0  0  0  0  0  0  0  0  0
   35.1632    7.4322    2.2992 C   0  0  0  0  0  0  0  0  0  0  0  0
   34.5676    6.1916    1.9692 O   0  0  0  0  0  0  0  0  0  0  0  0
   36.3665   11.5324   -0.3183 C   0  0  2  0  0  0  0  0  0  0  0  0
   35.6043   10.4072   -0.1907 O   0  0  0  0  0  0  0  0  0  0  0  0
   36.2375   12.1500   -1.6796 C   0  0  1  0  0  0  0  0  0  0  0  0
   40.4790   11.4454    1.5305 N   0  0  0  0  0  0  0  0  0  0  0  0
   26.9742   12.2740   -3.6656 O   0  0  0  0  0  0  0  0  0  0  0  0
   37.1807   13.4116   -1.7733 C   0  0  2  0  0  0  0  0  0  0  0  0
   38.6869   13.0952   -1.4732 C   0  0  1  0  0  0  0  0  0  0  0  0
   38.7864   12.5116   -0.1559 C   0  0  1  0  0  0  0  0  0  0  0  0
   37.8875   11.2953   -0.0395 O   0  0  0  0  0  0  0  0  0  0  0  0
   40.2966   12.1329    0.1744 C   0  0  0  0  0  0  0  0  0  0  0  0
   36.6400   11.2291   -2.6676 N   0  0  0  0  0  0  0  0  0  0  0  0
   30.1336    7.6910    7.7600 O   0  0  0  0  0  0  0  0  0  0  0  0
   25.1683   12.7321   -2.3661 C   0  0  0  0  0  0  0  0  0  0  0  0
   39.0569   12.3321   -2.2467 O   0  0  0  0  0  0  0  0  0  0  0  0
   36.8387   14.1739   -0.9826 O   0  0  0  0  0  0  0  0  0  0  0  0
   26.9089   11.5520   -1.2807 C   0  0  0  0  0  0  0  0  0  0  0  0
   24.7923   13.8665   -3.0501 C   0  0  0  0  0  0  0  0  0  0  0  0
   26.4989   12.6642   -2.3790 C   0  0  1  0  0  0  0  0  0  0  0  0
   31.7750    9.6919    8.3951 F   0  0  0  0  0  0  0  0  0  0  0  0
  1  2  1  1  0  0  0
  1 10  1  0  0  0  0
  1  3  1  0  0  0  0
  3  4  1  6  0  0  0
  3  6  1  0  0  0  0
  5 46  2  0  0  0  0
  6 42  1  1  0  0  0
  6  8  1  0  0  0  0
  7 47  1  0  0  0  0
  8  9  1  0  0  0  0
  8 49  1  6  0  0  0
  9 10  1  0  0  0  0
  9 11  1  1  0  0  0
 11 12  1  0  0  0  0
 13 14  1  6  0  0  0
 13 15  1  0  0  0  0
 13 21  1  0  0  0  0
 14 46  1  0  0  0  0
 15 16  1  0  0  0  0
 16 17  1  1  0  0  0
 16 18  1  0  0  0  0
 18  2  1  1  0  0  0
 18 19  1  0  0  0  0
 19 20  1  1  0  0  0
 19 21  1  0  0  0  0
 21 22  1  6  0  0  0
 23 20  1  1  0  0  0
 23 24  1  0  0  0  0
 23 28  1  0  0  0  0
 24 25  1  6  0  0  0
 24 26  1  0  0  0  0
 26 27  1  0  0  0  0
 26 32  1  6  0  0  0
 27 28  1  0  0  0  0
 27 29  1  1  0  0  0
 29 30  1  0  0  0  0
 31 32  1  6  0  0  0
 31 33  1  0  0  0  0
 31 39  1  0  0  0  0
 33 36  1  0  0  0  0
 33 41  1  6  0  0  0
 34 40  1  0  0  0  0
 35 48  1  0  0  0  0
 36 37  1  0  0  0  0
 36 45  1  1  0  0  0
 37 38  1  0  0  0  0
 37 44  1  6  0  0  0
 38 39  1  0  0  0  0
 38 40  1  6  0  0  0
 43 47  1  0  0  0  0
 46 48  1  0  0  0  0
 48 43  1  6  0  0  0
M  END
>  <CHROM.1>
-178.84162142,-172.34603573,-63.95400922,-75.74567457,-178.74817883,165.37355425
74.06179475,-175.30233370,-169.72992978,-177.24010706,63.76741783,-74.20633510
-91.61697333,32.20836263,10.82126007,1.64078173,-2.93169951,0.02767402,-1.22668990

>  <Name>
ligand

>  <RI>
0

>  <Rbt.Current_Directory>
/home/itssahil/PROJECTS/Mol_Feturizer/New_Systems/rnas/4PDQ

>  <Rbt.Executable>
rbdock ($Id: //depot/dev/client3/rdock/2013.1/src/exe/rbdock.cxx#4 $)

>  <Rbt.Library>
libRbt.so (2013.1, Build901 2013/11/27)

>  <Rbt.Parameter_File>
/export/apps/rDock/src/rDock_2013.1_src/data/scripts/dock_solv.prm

>  <Rbt.Receptor>
prm/pocket_docking_5.prm

>  <SCORE>
-18.7111

>  <SCORE.INTER>
-7.34493

>  <SCORE.INTER.CONST>
1

>  <SCORE.INTER.POLAR>
0

>  <SCORE.INTER.ROT>
13

>  <SCORE.INTER.SOLV>
18.4944

>  <SCORE.INTER.VDW>
-23.3281

>  <SCORE.INTER.norm>
-0.149897

>  <SCORE.INTRA>
-11.3679

>  <SCORE.INTRA.DIHEDRAL>
-29.0255

>  <SCORE.INTRA.DIHEDRAL.0>
34.5115

>  <SCORE.INTRA.POLAR>
0

>  <SCORE.INTRA.POLAR.0>
0

>  <SCORE.INTRA.REPUL>
0

>  <SCORE.INTRA.REPUL.0>
0

>  <SCORE.INTRA.SOLV>
-3.65935

>  <SCORE.INTRA.SOLV.lig_0>
-122.812

>  <SCORE.INTRA.VDW>
4.97454

>  <SCORE.INTRA.VDW.0>
-7.46208

>  <SCORE.INTRA.norm>
-0.231998

>  <SCORE.RESTR>
0.00174096

>  <SCORE.RESTR.CAVITY>
0.00174096

>  <SCORE.RESTR.norm>
3.55297e-05

>  <SCORE.SYSTEM>
0

>  <SCORE.SYSTEM.CONST>
0

>  <SCORE.SYSTEM.DIHEDRAL>
0

>  <SCORE.SYSTEM.SOLV>
0

>  <SCORE.SYSTEM.norm>
0

>  <SCORE.heavy>
49

>  <SCORE.norm>
-0.381859

>  <RMSD>
10.771

$$$$
ligand
 OpenBabel11021811513D
libRbt.so/2013.1/901 2013/11/27
 49 52  0  0  0  0  0  0  0  0999 V2000
   24.6060   16.5291    8.9490 C   0  0  2  0  0  0  0  0  0  0  0  0
   25.5811   15.9012    9.7280 O   0  0  0  0  0  0  0  0  0  0  0  0
   25.2382   17.7583    8.1963 C   0  0  2  0  0  0  0  0  0  0  0  0
   26.3832   17.2721    7.3217 N   0  0  0  0  0  0  0  0  0  0  0  0
   27.1467   10.3128   11.2570 O   0  0  0  0  0  0  0  0  0  0  0  0
   25.7160   18.8234    9.2107 C   0  0  2  0  0  0  0  0  0  0  0  0
   27.2845    6.8853   10.7918 N   0  0  0  0  0  0  0  0  0  0  0  0
   24.5470   19.2843   10.0954 C   0  0  2  0  0  0  0  0  0  0  0  0
   23.8815   18.0693   10.8705 C   0  0  2  0  0  0  0  0  0  0  0  0
   23.4745   17.0206    9.8338 O   0  0  0  0  0  0  0  0  0  0  0  0
   22.6641   18.5350   11.7207 C   0  0  0  0  0  0  0  0  0  0  0  0
   21.7901   19.4180   11.0350 N   0  0  0  0  0  0  0  0  0  0  0  0
   25.5768   12.4834   12.3966 C   0  0  2  0  0  0  0  0  0  0  0  0
   25.4668   11.0668   12.8531 N   0  0  0  0  0  0  0  0  0  0  0  0
   24.3266   12.7634   11.4297 C   0  0  0  0  0  0  0  0  0  0  0  0
   24.3509   14.2522   10.9186 C   0  0  2  0  0  0  0  0  0  0  0  0
   23.2210   14.5156   10.0152 N   0  0  0  0  0  0  0  0  0  0  0  0
   25.6582   14.5318   10.1508 C   0  0  2  0  0  0  0  0  0  0  0  0
   26.9127   14.2609   11.0758 C   0  0  2  0  0  0  0  0  0  0  0  0
   28.1036   14.5624   10.2571 O   0  0  0  0  0  0  0  0  0  0  0  0
   26.8996   12.7139   11.5320 C   0  0  1  0  0  0  0  0  0  0  0  0
   28.0142   12.4939   12.3376 O   0  0  0  0  0  0  0  0  0  0  0  0
   28.2775   14.2879    9.0092 C   0  0  1  0  0  0  0  0  0  0  0  0
   29.6157   14.7861    8.3883 C   0  0  2  0  0  0  0  0  0  0  0  0
   29.4018   16.0576    7.8617 O   0  0  0  0  0  0  0  0  0  0  0  0
   29.7547   13.7748    7.3271 C   0  0  1  0  0  0  0  0  0  0  0  0
   29.2893   12.4009    7.9010 C   0  0  2  0  0  0  0  0  0  0  0  0
   28.2108   12.8629    8.6768 O   0  0  0  0  0  0  0  0  0  0  0  0
   30.3297   11.5140    8.5866 C   0  0  0  0  0  0  0  0  0  0  0  0
   31.5822   11.8730    8.0342 O   0  0  0  0  0  0  0  0  0  0  0  0
   27.8713   13.4458    5.7883 C   0  0  2  0  0  0  0  0  0  0  0  0
   28.9075   14.2423    6.1826 O   0  0  0  0  0  0  0  0  0  0  0  0
   27.2147   13.9520    4.5378 C   0  0  1  0  0  0  0  0  0  0  0  0
   23.5978   13.4780    7.8075 N   0  0  0  0  0  0  0  0  0  0  0  0
   25.5608    8.6778   14.0850 O   0  0  0  0  0  0  0  0  0  0  0  0
   25.9985   13.0163    4.1699 C   0  0  2  0  0  0  0  0  0  0  0  0
   24.9347   12.8872    5.3146 C   0  0  1  0  0  0  0  0  0  0  0  0
   25.5876   12.3898    6.5028 C   0  0  1  0  0  0  0  0  0  0  0  0
   26.7624   13.2730    6.8782 O   0  0  0  0  0  0  0  0  0  0  0  0
   24.5517   12.2843    7.7065 C   0  0  0  0  0  0  0  0  0  0  0  0
   26.7168   15.2538    4.7471 N   0  0  0  0  0  0  0  0  0  0  0  0
   26.1329   19.7216    8.6399 O   0  0  0  0  0  0  0  0  0  0  0  0
   25.2795    7.9570   11.9493 C   0  0  0  0  0  0  0  0  0  0  0  0
   24.5104   13.9312    5.5330 O   0  0  0  0  0  0  0  0  0  0  0  0
   26.4065   11.9583    3.9763 O   0  0  0  0  0  0  0  0  0  0  0  0
   26.3405   10.0615   12.1640 C   0  0  0  0  0  0  0  0  0  0  0  0
   25.9719    6.9423   11.3274 C   0  0  0  0  0  0  0  0  0  0  0  0
   26.1171    8.5825   12.7755 C   0  0  1  0  0  0  0  0  0  0  0  0
   23.5576   19.8929    9.3030 F   0  0  0  0  0  0  0  0  0  0  0  0
  1  2  1  1  0  0  0
  1 10  1  0  0  0  0
  1  3  1  0  0  0  0
  3  4  1  1  0  0  0
  3  6  1  0  0  0  0
  5 46  2  0  0  0  0
  6 42  1  6  0  0  0
  6  8  1  0  0  0  0
  7 47  1  0  0  0  0
  8  9  1  0  0  0  0
  8 49  1  6  0  0  0
  9 10  1  0  0  0  0
  9 11  1  6  0  0  0
 11 12  1  0  0  0  0
 13 14  1  6  0  0  0
 13 15  1  0  0  0  0
 13 21  1  0  0  0  0
 14 46  1  0  0  0  0
 15 16  1  0  0  0  0
 16 17  1  6  0  0  0
 16 18  1  0  0  0  0
 18  2  1  1  0  0  0
 18 19  1  0  0  0  0
 19 20  1  6  0  0  0
 19 21  1  0  0  0  0
 21 22  1  1  0  0  0
 23 20  1  1  0  0  0
 23 24  1  0  0  0  0
 23 28  1  0  0  0  0
 24 25  1  6  0  0  0
 24 26  1  0  0  0  0
 26 27  1  0  0  0  0
 26 32  1  6  0  0  0
 27 28  1  0  0  0  0
 27 29  1  1  0  0  0
 29 30  1  0  0  0  0
 31 32  1  1  0  0  0
 31 33  1  0  0  0  0
 31 39  1  0  0  0  0
 33 36  1  0  0  0  0
 33 41  1  1  0  0  0
 34 40  1  0  0  0  0
 35 48  1  0  0  0  0
 36 37  1  0  0  0  0
 36 45  1  1  0  0  0
 37 38  1  0  0  0  0
 37 44  1  1  0  0  0
 38 39  1  0  0  0  0
 38 40  1  1  0  0  0
 43 47  1  0  0  0  0
 46 48  1  0  0  0  0
 48 43  1  6  0  0  0
M  END
>  <CHROM.1>
-153.12875628,-57.08933994,45.02826894,100.91999605,-39.51737829,177.29720816
-118.53321083,-25.52660525,-173.17765680,-41.92347884,-41.10925552,-128.24395552
157.54750010,26.24259008,13.89109776,9.11600298,2.04098486,0.96313520,-0.63791332

>  <Name>
ligand

>  <RI>
0

>  <Rbt.Current_Directory>
/home/itssahil/PROJECTS/Mol_Feturizer/New_Systems/rnas/4PDQ

>  <Rbt.Executable>
rbdock ($Id: //depot/dev/client3/rdock/2013.1/src/exe/rbdock.cxx#4 $)

>  <Rbt.Library>
libRbt.so (2013.1, Build901 2013/11/27)

>  <Rbt.Parameter_File>
/export/apps/rDock/src/rDock_2013.1_src/data/scripts/dock_solv.prm

>  <Rbt.Receptor>
prm/blind_docking_100.prm

>  <SCORE>
38.2247

>  <SCORE.INTER>
17.4735

>  <SCORE.INTER.CONST>
1

>  <SCORE.INTER.POLAR>
0

>  <SCORE.INTER.ROT>
13

>  <SCORE.INTER.SOLV>
31.9995

>  <SCORE.INTER.VDW>
-11.2842

>  <SCORE.INTER.norm>
0.356602

>  <SCORE.INTRA>
17.0643

>  <SCORE.INTRA.DIHEDRAL>
-7.97714

>  <SCORE.INTRA.DIHEDRAL.0>
34.5115

>  <SCORE.INTRA.POLAR>
0

>  <SCORE.INTRA.POLAR.0>
0

>  <SCORE.INTRA.REPUL>
0.835336

>  <SCORE.INTRA.REPUL.0>
0

>  <SCORE.INTRA.SOLV>
13.865

>  <SCORE.INTRA.SOLV.lig_0>
-122.812

>  <SCORE.INTRA.VDW>
9.94375

>  <SCORE.INTRA.VDW.0>
-7.46208

>  <SCORE.INTRA.norm>
0.348252

>  <SCORE.RESTR>
3.68682

>  <SCORE.RESTR.CAVITY>
3.68682

>  <SCORE.RESTR.norm>
0.0752413

>  <SCORE.SYSTEM>
0

>  <SCORE.SYSTEM.CONST>
0

>  <SCORE.SYSTEM.DIHEDRAL>
0

>  <SCORE.SYSTEM.SOLV>
0

>  <SCORE.SYSTEM.norm>
0

>  <SCORE.heavy>
49

>  <SCORE.norm>
0.780095

>  <RMSD>
10.786

$$$$
ligand
 OpenBabel11021811513D
libRbt.so/2013.1/901 2013/11/27
 49 52  0  0  0  0  0  0  0  0999 V2000
   25.7770   13.1514    8.7236 C   0  0  2  0  0  0  0  0  0  0  0  0
   26.0535   11.9196    9.3221 O   0  0  0  0  0  0  0  0  0  0  0  0
   25.1834   12.9210    7.2843 C   0  0  2  0  0  0  0  0  0  0  0  0
   23.9152   12.0893    7.3954 N   0  0  0  0  0  0  0  0  0  0  0  0
   28.9513   11.6213   14.3642 O   0  0  0  0  0  0  0  0  0  0  0  0
   26.2291   12.2364    6.3735 C   0  0  2  0  0  0  0  0  0  0  0  0
   32.2229    9.3486   17.7515 N   0  0  0  0  0  0  0  0  0  0  0  0
   27.5078   13.0850    6.2928 C   0  0  2  0  0  0  0  0  0  0  0  0
   28.1356   13.3406    7.7281 C   0  0  2  0  0  0  0  0  0  0  0  0
   27.0518   13.9676    8.6070 O   0  0  0  0  0  0  0  0  0  0  0  0
   29.3981   14.2465    7.6439 C   0  0  0  0  0  0  0  0  0  0  0  0
   30.0011   14.5080    8.9017 N   0  0  0  0  0  0  0  0  0  0  0  0
   27.5213    9.6801   12.7328 C   0  0  2  0  0  0  0  0  0  0  0  0
   28.3877    9.2992   13.8865 N   0  0  0  0  0  0  0  0  0  0  0  0
   28.4979   10.0333   11.5088 C   0  0  0  0  0  0  0  0  0  0  0  0
   27.6608   10.4249   10.2344 C   0  0  2  0  0  0  0  0  0  0  0  0
   28.5449   10.7704    9.1115 N   0  0  0  0  0  0  0  0  0  0  0  0
   26.7660   11.6433   10.5369 C   0  0  2  0  0  0  0  0  0  0  0  0
   25.7922   11.3295   11.7436 C   0  0  2  0  0  0  0  0  0  0  0  0
   24.9801   12.5454   11.9473 O   0  0  0  0  0  0  0  0  0  0  0  0
   26.6743   10.9958   13.0521 C   0  0  1  0  0  0  0  0  0  0  0  0
   25.8002   10.7306   14.1034 O   0  0  0  0  0  0  0  0  0  0  0  0
   25.0209   13.6314   11.2531 C   0  0  1  0  0  0  0  0  0  0  0  0
   23.9423   14.6982   11.6042 C   0  0  2  0  0  0  0  0  0  0  0  0
   22.8309   14.4725   10.7957 O   0  0  0  0  0  0  0  0  0  0  0  0
   24.6813   15.9019   11.1884 C   0  0  1  0  0  0  0  0  0  0  0  0
   26.1760   15.7196   11.5959 C   0  0  2  0  0  0  0  0  0  0  0  0
   26.2970   14.3486   11.3057 O   0  0  0  0  0  0  0  0  0  0  0  0
   26.6100   16.1934   12.9838 C   0  0  0  0  0  0  0  0  0  0  0  0
   28.0227   16.1133   13.0060 O   0  0  0  0  0  0  0  0  0  0  0  0
   25.1904   16.9989    9.0528 C   0  0  2  0  0  0  0  0  0  0  0  0
   24.4949   16.0229    9.7063 O   0  0  0  0  0  0  0  0  0  0  0  0
   24.3695   18.2387    8.8523 C   0  0  1  0  0  0  0  0  0  0  0  0
   25.9229   16.4418    4.6141 N   0  0  0  0  0  0  0  0  0  0  0  0
   30.5110    8.5838   15.4979 O   0  0  0  0  0  0  0  0  0  0  0  0
   25.2150   19.3017    8.0490 C   0  0  2  0  0  0  0  0  0  0  0  0
   25.7341   18.7777    6.6653 C   0  0  1  0  0  0  0  0  0  0  0  0
   26.5283   17.5917    6.8849 C   0  0  1  0  0  0  0  0  0  0  0  0
   25.7373   16.5526    7.6568 O   0  0  0  0  0  0  0  0  0  0  0  0
   27.0411   16.9987    5.4999 C   0  0  0  0  0  0  0  0  0  0  0  0
   23.2168   17.9378    8.0993 N   0  0  0  0  0  0  0  0  0  0  0  0
   25.7896   12.1173    5.3252 O   0  0  0  0  0  0  0  0  0  0  0  0
   30.9084   10.7459   16.0699 C   0  0  0  0  0  0  0  0  0  0  0  0
   24.8261   18.5026    6.0193 O   0  0  0  0  0  0  0  0  0  0  0  0
   26.1447   19.5655    8.6730 O   0  0  0  0  0  0  0  0  0  0  0  0
   29.0618   10.4153   14.6272 C   0  0  0  0  0  0  0  0  0  0  0  0
   31.4842   10.4682   17.2895 C   0  0  0  0  0  0  0  0  0  0  0  0
   29.9502    9.8463   15.8513 C   0  0  1  0  0  0  0  0  0  0  0  0
   27.2187   14.3329    5.7126 F   0  0  0  0  0  0  0  0  0  0  0  0
  1  2  1  6  0  0  0
  1 10  1  0  0  0  0
  1  3  1  0  0  0  0
  3  4  1  1  0  0  0
  3  6  1  0  0  0  0
  5 46  2  0  0  0  0
  6 42  1  6  0  0  0
  6  8  1  0  0  0  0
  7 47  1  0  0  0  0
  8  9  1  0  0  0  0
  8 49  1  1  0  0  0
  9 10  1  0  0  0  0
  9 11  1  6  0  0  0
 11 12  1  0  0  0  0
 13 14  1  1  0  0  0
 13 15  1  0  0  0  0
 13 21  1  0  0  0  0
 14 46  1  0  0  0  0
 15 16  1  0  0  0  0
 16 17  1  6  0  0  0
 16 18  1  0  0  0  0
 18  2  1  6  0  0  0
 18 19  1  0  0  0  0
 19 20  1  1  0  0  0
 19 21  1  0  0  0  0
 21 22  1  1  0  0  0
 23 20  1  1  0  0  0
 23 24  1  0  0  0  0
 23 28  1  0  0  0  0
 24 25  1  6  0  0  0
 24 26  1  0  0  0  0
 26 27  1  0  0  0  0
 26 32  1  6  0  0  0
 27 28  1  0  0  0  0
 27 29  1  1  0  0  0
 29 30  1  0  0  0  0
 31 32  1  6  0  0  0
 31 33  1  0  0  0  0
 31 39  1  0  0  0  0
 33 36  1  0  0  0  0
 33 41  1  6  0  0  0
 34 40  1  0  0  0  0
 35 48  1  0  0  0  0
 36 37  1  0  0  0  0
 36 45  1  1  0  0  0
 37 38  1  0  0  0  0
 37 44  1  6  0  0  0
 38 39  1  0  0  0  0
 38 40  1  6  0  0  0
 43 47  1  0  0  0  0
 46 48  1  0  0  0  0
 48 43  1  6  0  0  0
M  END
>  <CHROM.1>
170.41816311,-138.00489492,-179.99922380,76.91286389,2.17864173,173.82751357
-174.01573249,-170.71607462,-96.38581918,-67.16602101,63.99936857,-74.75180932
-146.82295374,26.80742203,13.70312128,10.24410994,-2.67857491,-1.15762751
1.19942335

>  <Name>
ligand

>  <RI>
0

>  <Rbt.Current_Directory>
/home/itssahil/PROJECTS/Mol_Feturizer/New_Systems/rnas/4PDQ

>  <Rbt.Executable>
rbdock ($Id: //depot/dev/client3/rdock/2013.1/src/exe/rbdock.cxx#4 $)

>  <Rbt.Library>
libRbt.so (2013.1, Build901 2013/11/27)

>  <Rbt.Parameter_File>
/export/apps/rDock/src/rDock_2013.1_src/data/scripts/dock_solv.prm

>  <Rbt.Receptor>
prm/blind_docking_80.prm

>  <SCORE>
8.05475

>  <SCORE.INTER>
-0.90009

>  <SCORE.INTER.CONST>
1

>  <SCORE.INTER.POLAR>
0

>  <SCORE.INTER.ROT>
13

>  <SCORE.INTER.SOLV>
29.0554

>  <SCORE.INTER.VDW>
-22.5519

>  <SCORE.INTER.norm>
-0.0183692

>  <SCORE.INTRA>
0.994673

>  <SCORE.INTRA.DIHEDRAL>
-13.016

>  <SCORE.INTRA.DIHEDRAL.0>
34.5115

>  <SCORE.INTRA.POLAR>
0

>  <SCORE.INTRA.POLAR.0>
0

>  <SCORE.INTRA.REPUL>
0.0222933

>  <SCORE.INTRA.REPUL.0>
0

>  <SCORE.INTRA.SOLV>
4.20569

>  <SCORE.INTRA.SOLV.lig_0>
-122.812

>  <SCORE.INTRA.VDW>
5.28834

>  <SCORE.INTRA.VDW.0>
-7.46208

>  <SCORE.INTRA.norm>
0.0202995

>  <SCORE.RESTR>
7.96017

>  <SCORE.RESTR.CAVITY>
7.96017

>  <SCORE.RESTR.norm>
0.162452

>  <SCORE.SYSTEM>
0

>  <SCORE.SYSTEM.CONST>
0

>  <SCORE.SYSTEM.DIHEDRAL>
0

>  <SCORE.SYSTEM.SOLV>
0

>  <SCORE.SYSTEM.norm>
0

>  <SCORE.heavy>
49

>  <SCORE.norm>
0.164383

>  <RMSD>
10.792

$$$$
ligand
 OpenBabel11021811513D
libRbt.so/2013.1/901 2013/11/27
 49 52  0  0  0  0  0  0  0  0999 V2000
   24.5680   15.6458   11.2978 C   0  0  2  0  0  0  0  0  0  0  0  0
   25.0796   14.8103   10.3016 O   0  0  0  0  0  0  0  0  0  0  0  0
   24.1378   17.0222   10.6670 C   0  0  2  0  0  0  0  0  0  0  0  0
   23.0892   16.7728    9.5944 N   0  0  0  0  0  0  0  0  0  0  0  0
   26.8480    9.2280    9.8824 O   0  0  0  0  0  0  0  0  0  0  0  0
   25.3695   17.7595   10.0915 C   0  0  2  0  0  0  0  0  0  0  0  0
   29.4900    5.1436   11.3051 N   0  0  0  0  0  0  0  0  0  0  0  0
   26.4225   17.9821   11.1885 C   0  0  2  0  0  0  0  0  0  0  0  0
   26.8803   16.6140   11.8505 C   0  0  2  0  0  0  0  0  0  0  0  0
   25.6270   15.8972   12.3562 O   0  0  0  0  0  0  0  0  0  0  0  0
   27.9047   16.8516   12.9976 C   0  0  0  0  0  0  0  0  0  0  0  0
   27.3611   17.5273   14.1210 N   0  0  0  0  0  0  0  0  0  0  0  0
   25.7211   10.8737   12.0029 C   0  0  2  0  0  0  0  0  0  0  0  0
   25.8223    9.3872   12.0871 N   0  0  0  0  0  0  0  0  0  0  0  0
   24.3655   11.2078   11.2109 C   0  0  0  0  0  0  0  0  0  0  0  0
   24.1660   12.7652   11.0972 C   0  0  2  0  0  0  0  0  0  0  0  0
   22.9371   13.0843   10.3557 N   0  0  0  0  0  0  0  0  0  0  0  0
   25.3572   13.4033   10.3550 C   0  0  2  0  0  0  0  0  0  0  0  0
   26.7123   13.0888   11.1086 C   0  0  2  0  0  0  0  0  0  0  0  0
   27.7811   13.7443   10.3293 O   0  0  0  0  0  0  0  0  0  0  0  0
   26.9248   11.4906   11.1538 C   0  0  1  0  0  0  0  0  0  0  0  0
   28.1248   11.2351   11.8130 O   0  0  0  0  0  0  0  0  0  0  0  0
   28.0119   13.6157    9.0672 C   0  0  1  0  0  0  0  0  0  0  0  0
   28.8184   14.7725    8.4069 C   0  0  2  0  0  0  0  0  0  0  0  0
   27.9112   15.7157    7.9303 O   0  0  0  0  0  0  0  0  0  0  0  0
   29.4365   14.0100    7.3094 C   0  0  1  0  0  0  0  0  0  0  0  0
   29.8373   12.6059    7.8584 C   0  0  2  0  0  0  0  0  0  0  0  0
   28.7253   12.3923    8.6929 O   0  0  0  0  0  0  0  0  0  0  0  0
   31.2285   12.4395    8.4714 C   0  0  0  0  0  0  0  0  0  0  0  0
   32.1500   12.8576    7.4822 O   0  0  0  0  0  0  0  0  0  0  0  0
   27.1246   13.6532    6.5671 C   0  0  2  0  0  0  0  0  0  0  0  0
   28.4135   13.9351    6.2167 O   0  0  0  0  0  0  0  0  0  0  0  0
   26.5282   12.5782    5.7069 C   0  0  1  0  0  0  0  0  0  0  0  0
   22.3757   15.7875    6.9957 N   0  0  0  0  0  0  0  0  0  0  0  0
   25.3096    6.4701   10.6118 O   0  0  0  0  0  0  0  0  0  0  0  0
   25.0273   12.3404    6.1321 C   0  0  2  0  0  0  0  0  0  0  0  0
   24.1408   13.6318    6.0608 C   0  0  1  0  0  0  0  0  0  0  0  0
   24.7286   14.6471    6.9030 C   0  0  1  0  0  0  0  0  0  0  0  0
   26.1740   14.8945    6.5145 O   0  0  0  0  0  0  0  0  0  0  0  0
   23.8837   15.9937    6.8270 C   0  0  0  0  0  0  0  0  0  0  0  0
   26.5416   12.9784    4.3556 N   0  0  0  0  0  0  0  0  0  0  0  0
   25.0381   18.7717    9.6769 O   0  0  0  0  0  0  0  0  0  0  0  0
   27.5733    6.6441   10.5413 C   0  0  0  0  0  0  0  0  0  0  0  0
   24.1346   14.0066    4.9759 O   0  0  0  0  0  0  0  0  0  0  0  0
   25.0165   11.9916    7.2281 O   0  0  0  0  0  0  0  0  0  0  0  0
   26.4240    8.6797   10.9097 C   0  0  0  0  0  0  0  0  0  0  0  0
   28.2330    5.7944   11.4009 C   0  0  0  0  0  0  0  0  0  0  0  0
   26.4761    7.0835   11.1563 C   0  0  1  0  0  0  0  0  0  0  0  0
   25.8938   18.8030   12.2004 F   0  0  0  0  0  0  0  0  0  0  0  0
  1  2  1  6  0  0  0
  1 10  1  0  0  0  0
  1  3  1  0  0  0  0
  3  4  1  6  0  0  0
  3  6  1  0  0  0  0
  5 46  2  0  0  0  0
  6 42  1  1  0  0  0
  6  8  1  0  0  0  0
  7 47  1  0  0  0  0
  8  9  1  0  0  0  0
  8 49  1  1  0  0  0
  9 10  1  0  0  0  0
  9 11  1  1  0  0  0
 11 12  1  0  0  0  0
 13 14  1  6  0  0  0
 13 15  1  0  0  0  0
 13 21  1  0  0  0  0
 14 46  1  0  0  0  0
 15 16  1  0  0  0  0
 16 17  1  6  0  0  0
 16 18  1  0  0  0  0
 18  2  1  1  0  0  0
 18 19  1  0  0  0  0
 19 20  1  6  0  0  0
 19 21  1  0  0  0  0
 21 22  1  1  0  0  0
 23 20  1  1  0  0  0
 23 24  1  0  0  0  0
 23 28  1  0  0  0  0
 24 25  1  6  0  0  0
 24 26  1  0  0  0  0
 26 27  1  0  0  0  0
 26 32  1  6  0  0  0
 27 28  1  0  0  0  0
 27 29  1  1  0  0  0
 29 30  1  0  0  0  0
 31 32  1  6  0  0  0
 31 33  1  0  0  0  0
 31 39  1  0  0  0  0
 33 36  1  0  0  0  0
 33 41  1  6  0  0  0
 34 40  1  0  0  0  0
 35 48  1  0  0  0  0
 36 37  1  0  0  0  0
 36 45  1  1  0  0  0
 37 38  1  0  0  0  0
 37 44  1  6  0  0  0
 38 39  1  0  0  0  0
 38 40  1  6  0  0  0
 43 47  1  0  0  0  0
 46 48  1  0  0  0  0
 48 43  1  6  0  0  0
M  END
>  <CHROM.1>
-167.18027689,42.35672079,66.57562334,84.42856575,-52.93739789,158.11314037
-43.69411491,-55.67177289,-132.11393125,48.03479579,-174.02694381,-106.64972867
-87.49264020,26.46305629,13.27631611,9.45259749,2.82983740,1.32389380,-1.33061942

>  <Name>
ligand

>  <RI>
0

>  <Rbt.Current_Directory>
/home/itssahil/PROJECTS/Mol_Feturizer/New_Systems/rnas/4PDQ

>  <Rbt.Executable>
rbdock ($Id: //depot/dev/client3/rdock/2013.1/src/exe/rbdock.cxx#4 $)

>  <Rbt.Library>
libRbt.so (2013.1, Build901 2013/11/27)

>  <Rbt.Parameter_File>
/export/apps/rDock/src/rDock_2013.1_src/data/scripts/dock_solv.prm

>  <Rbt.Receptor>
prm/blind_docking_100.prm

>  <SCORE>
43.115

>  <SCORE.INTER>
36.4159

>  <SCORE.INTER.CONST>
1

>  <SCORE.INTER.POLAR>
0

>  <SCORE.INTER.ROT>
13

>  <SCORE.INTER.SOLV>
27.8255

>  <SCORE.INTER.VDW>
2.73546

>  <SCORE.INTER.norm>
0.743182

>  <SCORE.INTRA>
4.78713

>  <SCORE.INTRA.DIHEDRAL>
-14.6014

>  <SCORE.INTRA.DIHEDRAL.0>
34.5115

>  <SCORE.INTRA.POLAR>
0

>  <SCORE.INTRA.POLAR.0>
0

>  <SCORE.INTRA.REPUL>
0.49999

>  <SCORE.INTRA.REPUL.0>
0

>  <SCORE.INTRA.SOLV>
5.18967

>  <SCORE.INTRA.SOLV.lig_0>
-122.812

>  <SCORE.INTRA.VDW>
6.99306

>  <SCORE.INTRA.VDW.0>
-7.46208

>  <SCORE.INTRA.norm>
0.0976965

>  <SCORE.RESTR>
1.91191

>  <SCORE.RESTR.CAVITY>
1.91191

>  <SCORE.RESTR.norm>
0.0390185

>  <SCORE.SYSTEM>
0

>  <SCORE.SYSTEM.CONST>
0

>  <SCORE.SYSTEM.DIHEDRAL>
0

>  <SCORE.SYSTEM.SOLV>
0

>  <SCORE.SYSTEM.norm>
0

>  <SCORE.heavy>
49

>  <SCORE.norm>
0.879897

>  <RMSD>
10.800

$$$$
ligand
 OpenBabel11021811513D
libRbt.so/2013.1/901 2013/11/27
 49 52  0  0  0  0  0  0  0  0999 V2000
   25.9239   13.1720    7.4104 C   0  0  2  0  0  0  0  0  0  0  0  0
   26.7458   13.4624    8.5023 O   0  0  0  0  0  0  0  0  0  0  0  0
   25.6368   14.4884    6.5970 C   0  0  2  0  0  0  0  0  0  0  0  0
   26.9557   15.0803    6.1250 N   0  0  0  0  0  0  0  0  0  0  0  0
   26.5451    7.0128   10.9228 O   0  0  0  0  0  0  0  0  0  0  0  0
   24.8445   15.4951    7.4635 C   0  0  2  0  0  0  0  0  0  0  0  0
   29.4494    3.7981   10.5067 N   0  0  0  0  0  0  0  0  0  0  0  0
   23.5266   14.8680    7.9445 C   0  0  2  0  0  0  0  0  0  0  0  0
   23.7762   13.5346    8.7688 C   0  0  2  0  0  0  0  0  0  0  0  0
   24.6064   12.5933    7.8941 O   0  0  0  0  0  0  0  0  0  0  0  0
   22.4355   12.8757    9.2048 C   0  0  0  0  0  0  0  0  0  0  0  0
   21.6183   13.7146   10.0064 N   0  0  0  0  0  0  0  0  0  0  0  0
   27.3899    9.7911   10.7180 C   0  0  2  0  0  0  0  0  0  0  0  0
   28.0452    8.8012   11.6224 N   0  0  0  0  0  0  0  0  0  0  0  0
   28.5312   10.3679    9.7479 C   0  0  0  0  0  0  0  0  0  0  0  0
   27.9185   11.4083    8.7377 C   0  0  2  0  0  0  0  0  0  0  0  0
   28.9583   11.9593    7.8563 N   0  0  0  0  0  0  0  0  0  0  0  0
   27.2665   12.5764    9.5041 C   0  0  2  0  0  0  0  0  0  0  0  0
   26.1376   12.0408   10.4745 C   0  0  2  0  0  0  0  0  0  0  0  0
   25.5753   13.2270   11.1499 O   0  0  0  0  0  0  0  0  0  0  0  0
   26.8028   11.0285   11.5395 C   0  0  1  0  0  0  0  0  0  0  0  0
   25.7960   10.5749   12.3881 O   0  0  0  0  0  0  0  0  0  0  0  0
   25.6716   14.4553   10.7695 C   0  0  1  0  0  0  0  0  0  0  0  0
   24.7666   15.4702   11.5283 C   0  0  2  0  0  0  0  0  0  0  0  0
   23.5598   15.5724   10.8405 O   0  0  0  0  0  0  0  0  0  0  0  0
   25.5949   16.6750   11.3544 C   0  0  1  0  0  0  0  0  0  0  0  0
   27.0918   16.2611   11.5010 C   0  0  2  0  0  0  0  0  0  0  0  0
   27.0215   15.0192   10.8442 O   0  0  0  0  0  0  0  0  0  0  0  0
   27.7174   16.2930   12.8961 C   0  0  0  0  0  0  0  0  0  0  0  0
   27.0932   15.2592   13.6340 O   0  0  0  0  0  0  0  0  0  0  0  0
   24.9240   18.5336    9.8987 C   0  0  2  0  0  0  0  0  0  0  0  0
   25.2736   17.2176    9.9947 O   0  0  0  0  0  0  0  0  0  0  0  0
   24.8365   18.9916    8.4726 C   0  0  1  0  0  0  0  0  0  0  0  0
   27.1746   21.1073   12.6444 N   0  0  0  0  0  0  0  0  0  0  0  0
   27.7918    6.5934   13.9550 O   0  0  0  0  0  0  0  0  0  0  0  0
   24.4800   20.5284    8.4376 C   0  0  2  0  0  0  0  0  0  0  0  0
   25.4953   21.4281    9.2240 C   0  0  1  0  0  0  0  0  0  0  0  0
   25.5548   20.9749   10.5939 C   0  0  1  0  0  0  0  0  0  0  0  0
   25.8960   19.4981   10.6552 O   0  0  0  0  0  0  0  0  0  0  0  0
   26.6088   21.8341   11.4210 C   0  0  0  0  0  0  0  0  0  0  0  0
   26.0797   18.8166    7.8322 N   0  0  0  0  0  0  0  0  0  0  0  0
   24.6135   16.4239    6.8388 O   0  0  0  0  0  0  0  0  0  0  0  0
   28.1522    5.2083   12.1911 C   0  0  0  0  0  0  0  0  0  0  0  0
   26.5320   21.3056    8.7466 O   0  0  0  0  0  0  0  0  0  0  0  0
   23.4547   20.6698    8.9396 O   0  0  0  0  0  0  0  0  0  0  0  0
   27.4918    7.4075   11.6183 C   0  0  0  0  0  0  0  0  0  0  0  0
   29.1726    4.9360   11.3076 C   0  0  0  0  0  0  0  0  0  0  0  0
   28.3113    6.4547   12.6343 C   0  0  1  0  0  0  0  0  0  0  0  0
   22.7141   14.5548    6.8404 F   0  0  0  0  0  0  0  0  0  0  0  0
  1  2  1  1  0  0  0
  1 10  1  0  0  0  0
  1  3  1  0  0  0  0
  3  4  1  1  0  0  0
  3  6  1  0  0  0  0
  5 46  2  0  0  0  0
  6 42  1  6  0  0  0
  6  8  1  0  0  0  0
  7 47  1  0  0  0  0
  8  9  1  0  0  0  0
  8 49  1  6  0  0  0
  9 10  1  0  0  0  0
  9 11  1  6  0  0  0
 11 12  1  0  0  0  0
 13 14  1  1  0  0  0
 13 15  1  0  0  0  0
 13 21  1  0  0  0  0
 14 46  1  0  0  0  0
 15 16  1  0  0  0  0
 16 17  1  6  0  0  0
 16 18  1  0  0  0  0
 18  2  1  6  0  0  0
 18 19  1  0  0  0  0
 19 20  1  1  0  0  0
 19 21  1  0  0  0  0
 21 22  1  1  0  0  0
 23 20  1  1  0  0  0
 23 24  1  0  0  0  0
 23 28  1  0  0  0  0
 24 25  1  6  0  0  0
 24 26  1  0  0  0  0
 26 27  1  0  0  0  0
 26 32  1  6  0  0  0
 27 28  1  0  0  0  0
 27 29  1  1  0  0  0
 29 30  1  0  0  0  0
 31 32  1  6  0  0  0
 31 33  1  0  0  0  0
 31 39  1  0  0  0  0
 33 36  1  0  0  0  0
 33 41  1  1  0  0  0
 34 40  1  0  0  0  0
 35 48  1  0  0  0  0
 36 37  1  0  0  0  0
 36 45  1  1  0  0  0
 37 38  1  0  0  0  0
 37 44  1  6  0  0  0
 38 39  1  0  0  0  0
 38 40  1  1  0  0  0
 43 47  1  0  0  0  0
 46 48  1  0  0  0  0
 48 43  1  6  0  0  0
M  END
>  <CHROM.1>
-179.53885374,50.95915971,-58.76263838,-122.83218186,18.81394680,169.26257882
127.90645392,68.30365896,171.21680926,-155.62325377,-176.66730229,-150.48076419
-96.18930185,26.03963296,14.08828169,10.01123930,1.16862000,1.02391539,-2.94063474

>  <Name>
ligand

>  <RI>
0

>  <Rbt.Current_Directory>
/home/itssahil/PROJECTS/Mol_Feturizer/New_Systems/rnas/4PDQ

>  <Rbt.Executable>
rbdock ($Id: //depot/dev/client3/rdock/2013.1/src/exe/rbdock.cxx#4 $)

>  <Rbt.Library>
libRbt.so (2013.1, Build901 2013/11/27)

>  <Rbt.Parameter_File>
/export/apps/rDock/src/rDock_2013.1_src/data/scripts/dock_solv.prm

>  <Rbt.Receptor>
prm/blind_docking_100.prm

>  <SCORE>
3.96787

>  <SCORE.INTER>
0.109621

>  <SCORE.INTER.CONST>
1

>  <SCORE.INTER.POLAR>
0

>  <SCORE.INTER.ROT>
13

>  <SCORE.INTER.SOLV>
32.9118

>  <SCORE.INTER.VDW>
-23.1642

>  <SCORE.INTER.norm>
0.00223716

>  <SCORE.INTRA>
-3.85955

>  <SCORE.INTRA.DIHEDRAL>
-13.4595

>  <SCORE.INTRA.DIHEDRAL.0>
34.5115

>  <SCORE.INTRA.POLAR>
0

>  <SCORE.INTRA.POLAR.0>
0

>  <SCORE.INTRA.REPUL>
0.0543581

>  <SCORE.INTRA.REPUL.0>
0

>  <SCORE.INTRA.SOLV>
2.03057

>  <SCORE.INTRA.SOLV.lig_0>
-122.812

>  <SCORE.INTRA.VDW>
1.58315

>  <SCORE.INTRA.VDW.0>
-7.46208

>  <SCORE.INTRA.norm>
-0.0787662

>  <SCORE.RESTR>
7.7178

>  <SCORE.RESTR.CAVITY>
7.7178

>  <SCORE.RESTR.norm>
0.157506

>  <SCORE.SYSTEM>
0

>  <SCORE.SYSTEM.CONST>
0

>  <SCORE.SYSTEM.DIHEDRAL>
0

>  <SCORE.SYSTEM.SOLV>
0

>  <SCORE.SYSTEM.norm>
0

>  <SCORE.heavy>
49

>  <SCORE.norm>
0.0809769

>  <RMSD>
10.805

$$$$
ligand
 OpenBabel11021811513D
libRbt.so/2013.1/901 2013/11/27
 49 52  0  0  0  0  0  0  0  0999 V2000
   24.3063   18.9687    7.7264 C   0  0  2  0  0  0  0  0  0  0  0  0
   23.7818   17.8563    8.3892 O   0  0  0  0  0  0  0  0  0  0  0  0
   23.4117   19.3135    6.4782 C   0  0  2  0  0  0  0  0  0  0  0  0
   21.9921   19.5954    6.9449 N   0  0  0  0  0  0  0  0  0  0  0  0
   28.6728   16.6457   13.1068 O   0  0  0  0  0  0  0  0  0  0  0  0
   23.4493   18.1567    5.4524 C   0  0  2  0  0  0  0  0  0  0  0  0
   26.1903   16.0855   17.9362 N   0  0  0  0  0  0  0  0  0  0  0  0
   24.8946   17.8776    5.0112 C   0  0  2  0  0  0  0  0  0  0  0  0
   25.8291   17.5273    6.2456 C   0  0  2  0  0  0  0  0  0  0  0  0
   25.7184   18.6716    7.2548 O   0  0  0  0  0  0  0  0  0  0  0  0
   27.3021   17.3006    5.7979 C   0  0  0  0  0  0  0  0  0  0  0  0
   27.9400   18.4711    5.3110 N   0  0  0  0  0  0  0  0  0  0  0  0
   25.9980   17.0259   12.0226 C   0  0  2  0  0  0  0  0  0  0  0  0
   26.2629   16.7231   13.4597 N   0  0  0  0  0  0  0  0  0  0  0  0
   24.9087   18.2042   11.9842 C   0  0  0  0  0  0  0  0  0  0  0  0
   24.5868   18.6056   10.4964 C   0  0  2  0  0  0  0  0  0  0  0  0
   23.5746   19.6710   10.4474 N   0  0  0  0  0  0  0  0  0  0  0  0
   24.0449   17.3887    9.7203 C   0  0  2  0  0  0  0  0  0  0  0  0
   25.0947   16.2053    9.7424 C   0  0  2  0  0  0  0  0  0  0  0  0
   24.4893   15.1005    8.9728 O   0  0  0  0  0  0  0  0  0  0  0  0
   25.3571   15.7697   11.2730 C   0  0  1  0  0  0  0  0  0  0  0  0
   26.2763   14.7234   11.2705 O   0  0  0  0  0  0  0  0  0  0  0  0
   24.7193   13.8395    9.1130 C   0  0  1  0  0  0  0  0  0  0  0  0
   23.7739   12.8885    8.3216 C   0  0  2  0  0  0  0  0  0  0  0  0
   22.6955   12.5683    9.1429 O   0  0  0  0  0  0  0  0  0  0  0  0
   24.6927   11.7490    8.1622 C   0  0  1  0  0  0  0  0  0  0  0  0
   26.1206   12.3114    7.8826 C   0  0  2  0  0  0  0  0  0  0  0  0
   26.0743   13.4165    8.7514 O   0  0  0  0  0  0  0  0  0  0  0  0
   26.5258   12.5657    6.4299 C   0  0  0  0  0  0  0  0  0  0  0  0
   27.8564   13.0459    6.4680 O   0  0  0  0  0  0  0  0  0  0  0  0
   25.7396   10.8961   10.2116 C   0  0  2  0  0  0  0  0  0  0  0  0
   24.6182   10.9630    9.4362 O   0  0  0  0  0  0  0  0  0  0  0  0
   26.1673    9.4803   10.4642 C   0  0  1  0  0  0  0  0  0  0  0  0
   26.0561   13.7984   13.6608 N   0  0  0  0  0  0  0  0  0  0  0  0
   29.1752   15.9465   15.7778 O   0  0  0  0  0  0  0  0  0  0  0  0
   27.4339    9.4764   11.4053 C   0  0  2  0  0  0  0  0  0  0  0  0
   27.2067   10.2151   12.7697 C   0  0  1  0  0  0  0  0  0  0  0  0
   26.8060   11.5762   12.5010 C   0  0  1  0  0  0  0  0  0  0  0  0
   25.5886   11.6077   11.5965 O   0  0  0  0  0  0  0  0  0  0  0  0
   26.5213   12.3532   13.8605 C   0  0  0  0  0  0  0  0  0  0  0  0
   25.1365    8.7737   11.1157 N   0  0  0  0  0  0  0  0  0  0  0  0
   22.8265   18.4476    4.5393 O   0  0  0  0  0  0  0  0  0  0  0  0
   27.4057   17.3392   16.0763 C   0  0  0  0  0  0  0  0  0  0  0  0
   26.3598    9.6824   13.3323 O   0  0  0  0  0  0  0  0  0  0  0  0
   28.2833   10.0331   10.8649 O   0  0  0  0  0  0  0  0  0  0  0  0
   27.6965   16.5502   13.8642 C   0  0  0  0  0  0  0  0  0  0  0  0
   27.1212   17.0005   17.3803 C   0  0  0  0  0  0  0  0  0  0  0  0
   27.8202   16.2412   15.4455 C   0  0  1  0  0  0  0  0  0  0  0  0
   25.4257   19.0091    4.3670 F   0  0  0  0  0  0  0  0  0  0  0  0
  1  2  1  6  0  0  0
  1 10  1  0  0  0  0
  1  3  1  0  0  0  0
  3  4  1  1  0  0  0
  3  6  1  0  0  0  0
  5 46  2  0  0  0  0
  6 42  1  6  0  0  0
  6  8  1  0  0  0  0
  7 47  1  0  0  0  0
  8  9  1  0  0  0  0
  8 49  1  1  0  0  0
  9 10  1  0  0  0  0
  9 11  1  6  0  0  0
 11 12  1  0  0  0  0
 13 14  1  1  0  0  0
 13 15  1  0  0  0  0
 13 21  1  0  0  0  0
 14 46  1  0  0  0  0
 15 16  1  0  0  0  0
 16 17  1  1  0  0  0
 16 18  1  0  0  0  0
 18  2  1  6  0  0  0
 18 19  1  0  0  0  0
 19 20  1  6  0  0  0
 19 21  1  0  0  0  0
 21 22  1  6  0  0  0
 23 20  1  6  0  0  0
 23 24  1  0  0  0  0
 23 28  1  0  0  0  0
 24 25  1  1  0  0  0
 24 26  1  0  0  0  0
 26 27  1  0  0  0  0
 26 32  1  1  0  0  0
 27 28  1  0  0  0  0
 27 29  1  6  0  0  0
 29 30  1  0  0  0  0
 31 32  1  1  0  0  0
 31 33  1  0  0  0  0
 31 39  1  0  0  0  0
 33 36  1  0  0  0  0
 33 41  1  1  0  0  0
 34 40  1  0  0  0  0
 35 48  1  0  0  0  0
 36 37  1  0  0  0  0
 36 45  1  6  0  0  0
 37 38  1  0  0  0  0
 37 44  1  6  0  0  0
 38 39  1  0  0  0  0
 38 40  1  1  0  0  0
 43 47  1  0  0  0  0
 46 48  1  0  0  0  0
 48 43  1  1  0  0  0
M  END
>  <CHROM.1>
-162.93138522,21.48044297,67.05015026,-135.43091122,-152.94267509,170.65712758
-114.89155154,-179.08164814,-123.15279078,-178.57040739,-60.63317506,-77.96360033
-6.81936767,25.72185271,15.05193081,10.11969309,-2.86361827,1.31256675,-2.78297849

>  <Name>
ligand

>  <RI>
0

>  <Rbt.Current_Directory>
/home/itssahil/PROJECTS/Mol_Feturizer/New_Systems/rnas/4PDQ

>  <Rbt.Executable>
rbdock ($Id: //depot/dev/client3/rdock/2013.1/src/exe/rbdock.cxx#4 $)

>  <Rbt.Library>
libRbt.so (2013.1, Build901 2013/11/27)

>  <Rbt.Parameter_File>
/export/apps/rDock/src/rDock_2013.1_src/data/scripts/dock_solv.prm

>  <Rbt.Receptor>
prm/blind_docking_40.prm

>  <SCORE>
2.61026

>  <SCORE.INTER>
-1.48173

>  <SCORE.INTER.CONST>
1

>  <SCORE.INTER.POLAR>
0

>  <SCORE.INTER.ROT>
13

>  <SCORE.INTER.SOLV>
32.3541

>  <SCORE.INTER.VDW>
-24.0392

>  <SCORE.INTER.norm>
-0.0302395

>  <SCORE.INTRA>
2.57602

>  <SCORE.INTRA.DIHEDRAL>
-7.19849

>  <SCORE.INTRA.DIHEDRAL.0>
34.5115

>  <SCORE.INTRA.POLAR>
0

>  <SCORE.INTRA.POLAR.0>
0

>  <SCORE.INTRA.REPUL>
0

>  <SCORE.INTRA.REPUL.0>
0

>  <SCORE.INTRA.SOLV>
5.60362

>  <SCORE.INTRA.SOLV.lig_0>
-122.812

>  <SCORE.INTRA.VDW>
3.37346

>  <SCORE.INTRA.VDW.0>
-7.46208

>  <SCORE.INTRA.norm>
0.0525718

>  <SCORE.RESTR>
1.51598

>  <SCORE.RESTR.CAVITY>
1.51598

>  <SCORE.RESTR.norm>
0.0309383

>  <SCORE.SYSTEM>
0

>  <SCORE.SYSTEM.CONST>
0

>  <SCORE.SYSTEM.DIHEDRAL>
0

>  <SCORE.SYSTEM.SOLV>
0

>  <SCORE.SYSTEM.norm>
0

>  <SCORE.heavy>
49

>  <SCORE.norm>
0.0532706

>  <RMSD>
10.811

$$$$
ligand
 OpenBabel11021811513D
libRbt.so/2013.1/901 2013/11/27
 49 52  0  0  0  0  0  0  0  0999 V2000
   24.9056   16.2277    6.9253 C   0  0  2  0  0  0  0  0  0  0  0  0
   25.4390   16.9160    8.0179 O   0  0  0  0  0  0  0  0  0  0  0  0
   25.1720   17.0406    5.6042 C   0  0  2  0  0  0  0  0  0  0  0  0
   26.6705   17.2314    5.4300 N   0  0  0  0  0  0  0  0  0  0  0  0
   27.8146   18.6405   14.1429 O   0  0  0  0  0  0  0  0  0  0  0  0
   24.4316   18.3978    5.6482 C   0  0  2  0  0  0  0  0  0  0  0  0
   25.9696   15.7564   18.4452 N   0  0  0  0  0  0  0  0  0  0  0  0
   22.9231   18.1799    5.8446 C   0  0  2  0  0  0  0  0  0  0  0  0
   22.6148   17.3603    7.1686 C   0  0  2  0  0  0  0  0  0  0  0  0
   23.4081   16.0538    7.1046 O   0  0  0  0  0  0  0  0  0  0  0  0
   21.0900   17.0956    7.3319 C   0  0  0  0  0  0  0  0  0  0  0  0
   20.7774   16.1482    8.3412 N   0  0  0  0  0  0  0  0  0  0  0  0
   26.5592   16.8658   12.2066 C   0  0  2  0  0  0  0  0  0  0  0  0
   26.4411   16.6810   13.6827 N   0  0  0  0  0  0  0  0  0  0  0  0
   25.2431   17.6483   11.7247 C   0  0  0  0  0  0  0  0  0  0  0  0
   25.2968   17.9086   10.1731 C   0  0  2  0  0  0  0  0  0  0  0  0
   24.0867   18.6074    9.7158 N   0  0  0  0  0  0  0  0  0  0  0  0
   25.3999   16.5724    9.4108 C   0  0  2  0  0  0  0  0  0  0  0  0
   26.6868   15.7727    9.8662 C   0  0  2  0  0  0  0  0  0  0  0  0
   26.6978   14.5236    9.0794 O   0  0  0  0  0  0  0  0  0  0  0  0
   26.5758   15.4621   11.4450 C   0  0  1  0  0  0  0  0  0  0  0  0
   27.7123   14.7519   11.8243 O   0  0  0  0  0  0  0  0  0  0  0  0
   26.0362   13.4447    9.3264 C   0  0  1  0  0  0  0  0  0  0  0  0
   24.4878   13.5997    9.3815 C   0  0  2  0  0  0  0  0  0  0  0  0
   24.1266   13.8717   10.6989 O   0  0  0  0  0  0  0  0  0  0  0  0
   24.1163   12.2304    8.9879 C   0  0  1  0  0  0  0  0  0  0  0  0
   25.1040   11.7595    7.8760 C   0  0  2  0  0  0  0  0  0  0  0  0
   26.2756   12.3466    8.3870 O   0  0  0  0  0  0  0  0  0  0  0  0
   24.7420   12.0474    6.4183 C   0  0  0  0  0  0  0  0  0  0  0  0
   25.0129   13.4201    6.2064 O   0  0  0  0  0  0  0  0  0  0  0  0
   25.4375   11.0113   10.6588 C   0  0  2  0  0  0  0  0  0  0  0  0
   24.1998   11.3951   10.2295 O   0  0  0  0  0  0  0  0  0  0  0  0
   25.6948    9.5545   10.4085 C   0  0  1  0  0  0  0  0  0  0  0  0
   28.5695   10.9847   14.8427 N   0  0  0  0  0  0  0  0  0  0  0  0
   25.5383   17.5069   16.4449 O   0  0  0  0  0  0  0  0  0  0  0  0
   27.1171    9.1699   10.9735 C   0  0  2  0  0  0  0  0  0  0  0  0
   27.2956    9.4874   12.4986 C   0  0  1  0  0  0  0  0  0  0  0  0
   27.0528   10.8948   12.7126 C   0  0  1  0  0  0  0  0  0  0  0  0
   25.6899   11.2909   12.1771 O   0  0  0  0  0  0  0  0  0  0  0  0
   27.1803   11.2549   14.2576 C   0  0  0  0  0  0  0  0  0  0  0  0
   24.7324    8.7723   11.0782 N   0  0  0  0  0  0  0  0  0  0  0  0
   24.6071   18.9503    4.6632 O   0  0  0  0  0  0  0  0  0  0  0  0
   27.3099   16.0924   16.3006 C   0  0  0  0  0  0  0  0  0  0  0  0
   26.5177    8.8824   13.0872 O   0  0  0  0  0  0  0  0  0  0  0  0
   27.9056    9.7910   10.4116 O   0  0  0  0  0  0  0  0  0  0  0  0
   27.1496   17.6777   14.5508 C   0  0  0  0  0  0  0  0  0  0  0  0
   27.1301   15.7793   17.6294 C   0  0  0  0  0  0  0  0  0  0  0  0
   26.9173   17.3523   16.1165 C   0  0  1  0  0  0  0  0  0  0  0  0
   22.3965   17.4650    4.7543 F   0  0  0  0  0  0  0  0  0  0  0  0
  1  2  1  1  0  0  0
  1 10  1  0  0  0  0
  1  3  1  0  0  0  0
  3  4  1  1  0  0  0
  3  6  1  0  0  0  0
  5 46  2  0  0  0  0
  6 42  1  6  0  0  0
  6  8  1  0  0  0  0
  7 47  1  0  0  0  0
  8  9  1  0  0  0  0
  8 49  1  6  0  0  0
  9 10  1  0  0  0  0
  9 11  1  6  0  0  0
 11 12  1  0  0  0  0
 13 14  1  1  0  0  0
 13 15  1  0  0  0  0
 13 21  1  0  0  0  0
 14 46  1  0  0  0  0
 15 16  1  0  0  0  0
 16 17  1  6  0  0  0
 16 18  1  0  0  0  0
 18  2  1  6  0  0  0
 18 19  1  0  0  0  0
 19 20  1  6  0  0  0
 19 21  1  0  0  0  0
 21 22  1  1  0  0  0
 23 20  1  6  0  0  0
 23 24  1  0  0  0  0
 23 28  1  0  0  0  0
 24 25  1  1  0  0  0
 24 26  1  0  0  0  0
 26 27  1  0  0  0  0
 26 32  1  1  0  0  0
 27 28  1  0  0  0  0
 27 29  1  6  0  0  0
 29 30  1  0  0  0  0
 31 32  1  1  0  0  0
 31 33  1  0  0  0  0
 31 39  1  0  0  0  0
 33 36  1  0  0  0  0
 33 41  1  1  0  0  0
 34 40  1  0  0  0  0
 35 48  1  0  0  0  0
 36 37  1  0  0  0  0
 36 45  1  6  0  0  0
 37 38  1  0  0  0  0
 37 44  1  1  0  0  0
 38 39  1  0  0  0  0
 38 40  1  1  0  0  0
 43 47  1  0  0  0  0
 46 48  1  0  0  0  0
 48 43  1  6  0  0  0
M  END
>  <CHROM.1>
178.09554243,-145.50928797,168.04575938,-97.05582988,-81.89712984,58.90168389
-77.49473931,76.50999701,-106.79425354,61.45280086,60.22658005,-60.76675340
114.30170354,25.49981543,14.60924539,10.37231485,3.07593738,-1.24206147,0.38229337

>  <Name>
ligand

>  <RI>
0

>  <Rbt.Current_Directory>
/home/itssahil/PROJECTS/Mol_Feturizer/New_Systems/rnas/4PDQ

>  <Rbt.Executable>
rbdock ($Id: //depot/dev/client3/rdock/2013.1/src/exe/rbdock.cxx#4 $)

>  <Rbt.Library>
libRbt.so (2013.1, Build901 2013/11/27)

>  <Rbt.Parameter_File>
/export/apps/rDock/src/rDock_2013.1_src/data/scripts/dock_solv.prm

>  <Rbt.Receptor>
prm/blind_docking_40.prm

>  <SCORE>
0.59948

>  <SCORE.INTER>
2.90344

>  <SCORE.INTER.CONST>
1

>  <SCORE.INTER.POLAR>
0

>  <SCORE.INTER.ROT>
13

>  <SCORE.INTER.SOLV>
29.9753

>  <SCORE.INTER.VDW>
-20.3228

>  <SCORE.INTER.norm>
0.059254

>  <SCORE.INTRA>
-4.51772

>  <SCORE.INTRA.DIHEDRAL>
-17.0438

>  <SCORE.INTRA.DIHEDRAL.0>
34.5115

>  <SCORE.INTRA.POLAR>
0

>  <SCORE.INTRA.POLAR.0>
0

>  <SCORE.INTRA.REPUL>
0.0040367

>  <SCORE.INTRA.REPUL.0>
0

>  <SCORE.INTRA.SOLV>
1.59618

>  <SCORE.INTRA.SOLV.lig_0>
-122.812

>  <SCORE.INTRA.VDW>
3.1859

>  <SCORE.INTRA.VDW.0>
-7.46208

>  <SCORE.INTRA.norm>
-0.0921984

>  <SCORE.RESTR>
2.21376

>  <SCORE.RESTR.CAVITY>
2.21376

>  <SCORE.RESTR.norm>
0.0451787

>  <SCORE.SYSTEM>
0

>  <SCORE.SYSTEM.CONST>
0

>  <SCORE.SYSTEM.DIHEDRAL>
0

>  <SCORE.SYSTEM.SOLV>
0

>  <SCORE.SYSTEM.norm>
0

>  <SCORE.heavy>
49

>  <SCORE.norm>
0.0122343

>  <RMSD>
10.816

$$$$
ligand
 OpenBabel11021811513D
libRbt.so/2013.1/901 2013/11/27
 49 52  0  0  0  0  0  0  0  0999 V2000
   25.6872   15.3617    9.5581 C   0  0  2  0  0  0  0  0  0  0  0  0
   26.1800   14.4245   10.4696 O   0  0  0  0  0  0  0  0  0  0  0  0
   25.2305   16.6584   10.3245 C   0  0  2  0  0  0  0  0  0  0  0  0
   26.4162   17.2314   11.0850 N   0  0  0  0  0  0  0  0  0  0  0  0
   28.0669    8.6859   13.7154 O   0  0  0  0  0  0  0  0  0  0  0  0
   24.0532   16.3363   11.2742 C   0  0  2  0  0  0  0  0  0  0  0  0
   30.1960    4.6992   13.8988 N   0  0  0  0  0  0  0  0  0  0  0  0
   22.8759   15.7407   10.4864 C   0  0  2  0  0  0  0  0  0  0  0  0
   23.2993   14.4301    9.6973 C   0  0  2  0  0  0  0  0  0  0  0  0
   24.4972   14.7832    8.8138 O   0  0  0  0  0  0  0  0  0  0  0  0
   22.1173   13.8642    8.8581 C   0  0  0  0  0  0  0  0  0  0  0  0
   21.4456   14.8433    8.0808 N   0  0  0  0  0  0  0  0  0  0  0  0
   27.1065   10.3165   11.5032 C   0  0  2  0  0  0  0  0  0  0  0  0
   27.0252    8.8264   11.5169 N   0  0  0  0  0  0  0  0  0  0  0  0
   25.6051   10.8697   11.6305 C   0  0  0  0  0  0  0  0  0  0  0  0
   25.6000   12.4438   11.6488 C   0  0  2  0  0  0  0  0  0  0  0  0
   24.2279   12.9633   11.7449 N   0  0  0  0  0  0  0  0  0  0  0  0
   26.2355   12.9949   10.3567 C   0  0  2  0  0  0  0  0  0  0  0  0
   27.7175   12.4642   10.1983 C   0  0  2  0  0  0  0  0  0  0  0  0
   28.2352   13.0498    8.9459 O   0  0  0  0  0  0  0  0  0  0  0  0
   27.6885   10.8536   10.1164 C   0  0  1  0  0  0  0  0  0  0  0  0
   28.9995   10.4071    9.9694 O   0  0  0  0  0  0  0  0  0  0  0  0
   27.7023   13.9987    8.2543 C   0  0  1  0  0  0  0  0  0  0  0  0
   28.5568   14.5301    7.0660 C   0  0  2  0  0  0  0  0  0  0  0  0
   29.3325   15.5897    7.5304 O   0  0  0  0  0  0  0  0  0  0  0  0
   27.4614   14.9972    6.2001 C   0  0  1  0  0  0  0  0  0  0  0  0
   26.2915   13.9701    6.2994 C   0  0  2  0  0  0  0  0  0  0  0  0
   26.3974   13.6780    7.6713 O   0  0  0  0  0  0  0  0  0  0  0  0
   26.2767   12.7944    5.3214 C   0  0  0  0  0  0  0  0  0  0  0  0
   26.0478   13.3484    4.0394 O   0  0  0  0  0  0  0  0  0  0  0  0
   25.7554   16.6861    6.7108 C   0  0  2  0  0  0  0  0  0  0  0  0
   27.0808   16.3595    6.6958 O   0  0  0  0  0  0  0  0  0  0  0  0
   25.2708   17.1397    5.3653 C   0  0  1  0  0  0  0  0  0  0  0  0
   24.5008   20.5987    8.6908 N   0  0  0  0  0  0  0  0  0  0  0  0
   26.5407    6.2162   11.5016 O   0  0  0  0  0  0  0  0  0  0  0  0
   23.7501   17.5485    5.4674 C   0  0  2  0  0  0  0  0  0  0  0  0
   23.4674   18.6595    6.5371 C   0  0  1  0  0  0  0  0  0  0  0  0
   23.9328   18.1965    7.8234 C   0  0  1  0  0  0  0  0  0  0  0  0
   25.3943   17.7964    7.7520 O   0  0  0  0  0  0  0  0  0  0  0  0
   23.7054   19.3131    8.9345 C   0  0  0  0  0  0  0  0  0  0  0  0
   26.0000   18.2704    4.9456 N   0  0  0  0  0  0  0  0  0  0  0  0
   23.7139   17.2995   11.7874 O   0  0  0  0  0  0  0  0  0  0  0  0
   28.6180    6.0326   12.4020 C   0  0  0  0  0  0  0  0  0  0  0  0
   24.0565   19.6005    6.2453 O   0  0  0  0  0  0  0  0  0  0  0  0
   23.1505   16.6204    5.7877 O   0  0  0  0  0  0  0  0  0  0  0  0
   27.5672    8.1279   12.7282 C   0  0  0  0  0  0  0  0  0  0  0  0
   28.9755    5.3173   13.5229 C   0  0  0  0  0  0  0  0  0  0  0  0
   27.3962    6.5261   12.5995 C   0  0  1  0  0  0  0  0  0  0  0  0
   22.4002   16.6791    9.5534 F   0  0  0  0  0  0  0  0  0  0  0  0
  1  2  1  1  0  0  0
  1 10  1  0  0  0  0
  1  3  1  0  0  0  0
  3  4  1  1  0  0  0
  3  6  1  0  0  0  0
  5 46  2  0  0  0  0
  6 42  1  6  0  0  0
  6  8  1  0  0  0  0
  7 47  1  0  0  0  0
  8  9  1  0  0  0  0
  8 49  1  6  0  0  0
  9 10  1  0  0  0  0
  9 11  1  6  0  0  0
 11 12  1  0  0  0  0
 13 14  1  6  0  0  0
 13 15  1  0  0  0  0
 13 21  1  0  0  0  0
 14 46  1  0  0  0  0
 15 16  1  0  0  0  0
 16 17  1  6  0  0  0
 16 18  1  0  0  0  0
 18  2  1  1  0  0  0
 18 19  1  0  0  0  0
 19 20  1  6  0  0  0
 19 21  1  0  0  0  0
 21 22  1  1  0  0  0
 23 20  1  6  0  0  0
 23 24  1  0  0  0  0
 23 28  1  0  0  0  0
 24 25  1  1  0  0  0
 24 26  1  0  0  0  0
 26 27  1  0  0  0  0
 26 32  1  1  0  0  0
 27 28  1  0  0  0  0
 27 29  1  6  0  0  0
 29 30  1  0  0  0  0
 31 32  1  6  0  0  0
 31 33  1  0  0  0  0
 31 39  1  0  0  0  0
 33 36  1  0  0  0  0
 33 41  1  1  0  0  0
 34 40  1  0  0  0  0
 35 48  1  0  0  0  0
 36 37  1  0  0  0  0
 36 45  1  1  0  0  0
 37 38  1  0  0  0  0
 37 44  1  6  0  0  0
 38 39  1  0  0  0  0
 38 40  1  1  0  0  0
 43 47  1  0  0  0  0
 46 48  1  0  0  0  0
 48 43  1  6  0  0  0
M  END
>  <CHROM.1>
154.14411690,-128.85154351,47.84460342,-110.75231800,12.24267805,173.00455819
-141.06529094,-67.29813038,-81.88461762,-63.28561062,-173.17070730,-129.01382847
167.48768061,25.86374553,13.86911304,9.18987210,2.04466245,0.83930018,-0.82730095

>  <Name>
ligand

>  <RI>
0

>  <Rbt.Current_Directory>
/home/itssahil/PROJECTS/Mol_Feturizer/New_Systems/rnas/4PDQ

>  <Rbt.Executable>
rbdock ($Id: //depot/dev/client3/rdock/2013.1/src/exe/rbdock.cxx#4 $)

>  <Rbt.Library>
libRbt.so (2013.1, Build901 2013/11/27)

>  <Rbt.Parameter_File>
/export/apps/rDock/src/rDock_2013.1_src/data/scripts/dock_solv.prm

>  <Rbt.Receptor>
prm/blind_docking_60.prm

>  <SCORE>
15.1295

>  <SCORE.INTER>
7.19006

>  <SCORE.INTER.CONST>
1

>  <SCORE.INTER.POLAR>
0

>  <SCORE.INTER.ROT>
13

>  <SCORE.INTER.SOLV>
25.5242

>  <SCORE.INTER.VDW>
-15.9814

>  <SCORE.INTER.norm>
0.146736

>  <SCORE.INTRA>
6.68641

>  <SCORE.INTRA.DIHEDRAL>
-1.56736

>  <SCORE.INTRA.DIHEDRAL.0>
34.5115

>  <SCORE.INTRA.POLAR>
0

>  <SCORE.INTRA.POLAR.0>
0

>  <SCORE.INTRA.REPUL>
0.0165696

>  <SCORE.INTRA.REPUL.0>
0

>  <SCORE.INTRA.SOLV>
6.41669

>  <SCORE.INTRA.SOLV.lig_0>
-122.812

>  <SCORE.INTRA.VDW>
4.1789

>  <SCORE.INTRA.VDW.0>
-7.46208

>  <SCORE.INTRA.norm>
0.136457

>  <SCORE.RESTR>
1.25302

>  <SCORE.RESTR.CAVITY>
1.25302

>  <SCORE.RESTR.norm>
0.0255719

>  <SCORE.SYSTEM>
0

>  <SCORE.SYSTEM.CONST>
0

>  <SCORE.SYSTEM.DIHEDRAL>
0

>  <SCORE.SYSTEM.SOLV>
0

>  <SCORE.SYSTEM.norm>
0

>  <SCORE.heavy>
49

>  <SCORE.norm>
0.308765

>  <RMSD>
10.817

$$$$
ligand
 OpenBabel11021811513D
libRbt.so/2013.1/901 2013/11/27
 49 52  0  0  0  0  0  0  0  0999 V2000
   24.6661   18.9511    7.7810 C   0  0  2  0  0  0  0  0  0  0  0  0
   24.0070   17.9604    8.5131 O   0  0  0  0  0  0  0  0  0  0  0  0
   23.7479   19.4369    6.5986 C   0  0  2  0  0  0  0  0  0  0  0  0
   22.4455   19.9770    7.1684 N   0  0  0  0  0  0  0  0  0  0  0  0
   28.1146   18.6999   13.9808 O   0  0  0  0  0  0  0  0  0  0  0  0
   23.4922   18.2798    5.6048 C   0  0  2  0  0  0  0  0  0  0  0  0
   29.0087   14.0146   16.0502 N   0  0  0  0  0  0  0  0  0  0  0  0
   24.8224   17.7381    5.0583 C   0  0  2  0  0  0  0  0  0  0  0  0
   25.7776   17.2395    6.2239 C   0  0  2  0  0  0  0  0  0  0  0  0
   25.9580   18.3973    7.2074 O   0  0  0  0  0  0  0  0  0  0  0  0
   27.1438   16.7442    5.6674 C   0  0  0  0  0  0  0  0  0  0  0  0
   27.0462   15.5822    4.8586 N   0  0  0  0  0  0  0  0  0  0  0  0
   26.0404   17.5150   12.3170 C   0  0  2  0  0  0  0  0  0  0  0  0
   26.2831   17.1117   13.7332 N   0  0  0  0  0  0  0  0  0  0  0  0
   24.5605   18.1331   12.2519 C   0  0  0  0  0  0  0  0  0  0  0  0
   24.2289   18.6100   10.7888 C   0  0  2  0  0  0  0  0  0  0  0  0
   22.8675   19.1601   10.7118 N   0  0  0  0  0  0  0  0  0  0  0  0
   24.3276   17.4262    9.8060 C   0  0  2  0  0  0  0  0  0  0  0  0
   25.7755   16.7902    9.8486 C   0  0  2  0  0  0  0  0  0  0  0  0
   25.7687   15.6799    8.8756 O   0  0  0  0  0  0  0  0  0  0  0  0
   26.0645   16.2511   11.3410 C   0  0  1  0  0  0  0  0  0  0  0  0
   27.3385   15.6887   11.3557 O   0  0  0  0  0  0  0  0  0  0  0  0
   25.3558   14.4748    9.0758 C   0  0  1  0  0  0  0  0  0  0  0  0
   23.8189   14.2580    8.9507 C   0  0  2  0  0  0  0  0  0  0  0  0
   23.2526   14.4365   10.2105 O   0  0  0  0  0  0  0  0  0  0  0  0
   23.8292   12.8396    8.5556 C   0  0  1  0  0  0  0  0  0  0  0  0
   25.0228   12.6164    7.5764 C   0  0  2  0  0  0  0  0  0  0  0  0
   25.9552   13.4648    8.2004 O   0  0  0  0  0  0  0  0  0  0  0  0
   24.7759   12.8102    6.0796 C   0  0  0  0  0  0  0  0  0  0  0  0
   26.0041   12.5280    5.4356 O   0  0  0  0  0  0  0  0  0  0  0  0
   25.1984   11.9595   10.3926 C   0  0  2  0  0  0  0  0  0  0  0  0
   23.9617   12.0480    9.8214 O   0  0  0  0  0  0  0  0  0  0  0  0
   25.7744   10.5787   10.2798 C   0  0  1  0  0  0  0  0  0  0  0  0
   25.5565   11.8683   14.9627 N   0  0  0  0  0  0  0  0  0  0  0  0
   26.5184   17.8814   16.7914 O   0  0  0  0  0  0  0  0  0  0  0  0
   27.1763   10.5360   11.0029 C   0  0  2  0  0  0  0  0  0  0  0  0
   27.1210   10.9680   12.5093 C   0  0  1  0  0  0  0  0  0  0  0  0
   26.5731   12.3017   12.5912 C   0  0  1  0  0  0  0  0  0  0  0  0
   25.2235   12.3697   11.9020 O   0  0  0  0  0  0  0  0  0  0  0  0
   26.4574   12.7655   14.1093 C   0  0  0  0  0  0  0  0  0  0  0  0
   24.9267    9.6487   10.9145 N   0  0  0  0  0  0  0  0  0  0  0  0
   22.8584   18.6675    4.7363 O   0  0  0  0  0  0  0  0  0  0  0  0
   27.3592   15.9568   15.9260 C   0  0  0  0  0  0  0  0  0  0  0  0
   26.4251   10.2454   13.0672 O   0  0  0  0  0  0  0  0  0  0  0  0
   27.8763   11.2780   10.4713 O   0  0  0  0  0  0  0  0  0  0  0  0
   27.3928   17.8129   14.4582 C   0  0  0  0  0  0  0  0  0  0  0  0
   28.6052   15.3716   15.9582 C   0  0  0  0  0  0  0  0  0  0  0  0
   27.5222   17.2782   15.9777 C   0  0  1  0  0  0  0  0  0  0  0  0
   25.4929   18.7466    4.3438 F   0  0  0  0  0  0  0  0  0  0  0  0
  1  2  1  6  0  0  0
  1 10  1  0  0  0  0
  1  3  1  0  0  0  0
  3  4  1  1  0  0  0
  3  6  1  0  0  0  0
  5 46  2  0  0  0  0
  6 42  1  6  0  0  0
  6  8  1  0  0  0  0
  7 47  1  0  0  0  0
  8  9  1  0  0  0  0
  8 49  1  1  0  0  0
  9 10  1  0  0  0  0
  9 11  1  6  0  0  0
 11 12  1  0  0  0  0
 13 14  1  1  0  0  0
 13 15  1  0  0  0  0
 13 21  1  0  0  0  0
 14 46  1  0  0  0  0
 15 16  1  0  0  0  0
 16 17  1  1  0  0  0
 16 18  1  0  0  0  0
 18  2  1  6  0  0  0
 18 19  1  0  0  0  0
 19 20  1  6  0  0  0
 19 21  1  0  0  0  0
 21 22  1  6  0  0  0
 23 20  1  6  0  0  0
 23 24  1  0  0  0  0
 23 28  1  0  0  0  0
 24 25  1  1  0  0  0
 24 26  1  0  0  0  0
 26 27  1  0  0  0  0
 26 32  1  1  0  0  0
 27 28  1  0  0  0  0
 27 29  1  6  0  0  0
 29 30  1  0  0  0  0
 31 32  1  1  0  0  0
 31 33  1  0  0  0  0
 31 39  1  0  0  0  0
 33 36  1  0  0  0  0
 33 41  1  1  0  0  0
 34 40  1  0  0  0  0
 35 48  1  0  0  0  0
 36 37  1  0  0  0  0
 36 45  1  6  0  0  0
 37 38  1  0  0  0  0
 37 44  1  1  0  0  0
 38 39  1  0  0  0  0
 38 40  1  1  0  0  0
 43 47  1  0  0  0  0
 46 48  1  0  0  0  0
 48 43  1  6  0  0  0
M  END
>  <CHROM.1>
-166.11511331,61.75571966,-65.69122683,-117.17625973,-83.86278738,82.10877798
-78.03921586,-179.14572887,-110.03751738,-60.03354286,173.43877444,-141.26511921
100.21922798,25.62721785,15.33159563,10.16126343,-3.03336253,1.30839392,-2.81386381

>  <Name>
ligand

>  <RI>
0

>  <Rbt.Current_Directory>
/home/itssahil/PROJECTS/Mol_Feturizer/New_Systems/rnas/4PDQ

>  <Rbt.Executable>
rbdock ($Id: //depot/dev/client3/rdock/2013.1/src/exe/rbdock.cxx#4 $)

>  <Rbt.Library>
libRbt.so (2013.1, Build901 2013/11/27)

>  <Rbt.Parameter_File>
/export/apps/rDock/src/rDock_2013.1_src/data/scripts/dock_solv.prm

>  <Rbt.Receptor>
prm/blind_docking_40.prm

>  <SCORE>
-2.82597

>  <SCORE.INTER>
0.287748

>  <SCORE.INTER.CONST>
1

>  <SCORE.INTER.POLAR>
0

>  <SCORE.INTER.ROT>
13

>  <SCORE.INTER.SOLV>
30.982

>  <SCORE.INTER.VDW>
-22.4022

>  <SCORE.INTER.norm>
0.0058724

>  <SCORE.INTRA>
-4.33608

>  <SCORE.INTRA.DIHEDRAL>
-14.381

>  <SCORE.INTRA.DIHEDRAL.0>
34.5115

>  <SCORE.INTRA.POLAR>
0

>  <SCORE.INTRA.POLAR.0>
0

>  <SCORE.INTRA.REPUL>
0

>  <SCORE.INTRA.REPUL.0>
0

>  <SCORE.INTRA.SOLV>
2.71741

>  <SCORE.INTRA.SOLV.lig_0>
-122.812

>  <SCORE.INTRA.VDW>
1.49573

>  <SCORE.INTRA.VDW.0>
-7.46208

>  <SCORE.INTRA.norm>
-0.0884914

>  <SCORE.RESTR>
1.22237

>  <SCORE.RESTR.CAVITY>
1.22237

>  <SCORE.RESTR.norm>
0.0249463

>  <SCORE.SYSTEM>
0

>  <SCORE.SYSTEM.CONST>
0

>  <SCORE.SYSTEM.DIHEDRAL>
0

>  <SCORE.SYSTEM.SOLV>
0

>  <SCORE.SYSTEM.norm>
0

>  <SCORE.heavy>
49

>  <SCORE.norm>
-0.0576728

>  <RMSD>
10.827

$$$$
ligand
 OpenBabel11021811513D
libRbt.so/2013.1/901 2013/11/27
 49 52  0  0  0  0  0  0  0  0999 V2000
   27.1362    7.4007   12.0981 C   0  0  2  0  0  0  0  0  0  0  0  0
   27.9512    8.5276   12.2314 O   0  0  0  0  0  0  0  0  0  0  0  0
   27.9739    6.1016   12.3941 C   0  0  2  0  0  0  0  0  0  0  0  0
   28.5389    6.1832   13.8035 N   0  0  0  0  0  0  0  0  0  0  0  0
   23.5234   12.7446    9.0473 O   0  0  0  0  0  0  0  0  0  0  0  0
   29.0974    5.9343   11.3446 C   0  0  2  0  0  0  0  0  0  0  0  0
   24.2989   17.6309    6.9913 N   0  0  0  0  0  0  0  0  0  0  0  0
   28.5040    5.8743    9.9283 C   0  0  2  0  0  0  0  0  0  0  0  0
   27.6491    7.1692    9.5935 C   0  0  2  0  0  0  0  0  0  0  0  0
   26.5879    7.3232   10.6846 O   0  0  0  0  0  0  0  0  0  0  0  0
   27.0058    7.0766    8.1796 C   0  0  0  0  0  0  0  0  0  0  0  0
   25.9613    6.1205    8.0863 N   0  0  0  0  0  0  0  0  0  0  0  0
   25.8038   11.9593   10.6775 C   0  0  2  0  0  0  0  0  0  0  0  0
   25.3642   13.3760   10.5137 N   0  0  0  0  0  0  0  0  0  0  0  0
   25.8153   11.6505   12.2526 C   0  0  0  0  0  0  0  0  0  0  0  0
   26.2467   10.1597   12.5163 C   0  0  2  0  0  0  0  0  0  0  0  0
   26.2806    9.8700   13.9574 N   0  0  0  0  0  0  0  0  0  0  0  0
   27.6524    9.9005   11.9385 C   0  0  2  0  0  0  0  0  0  0  0  0
   27.6769   10.2001   10.3853 C   0  0  2  0  0  0  0  0  0  0  0  0
   29.0525    9.9166    9.9306 O   0  0  0  0  0  0  0  0  0  0  0  0
   27.2955   11.7490   10.1471 C   0  0  1  0  0  0  0  0  0  0  0  0
   27.3302   11.9944    8.7767 O   0  0  0  0  0  0  0  0  0  0  0  0
   29.5378   10.1179    8.7530 C   0  0  1  0  0  0  0  0  0  0  0  0
   31.0776   10.3395    8.6861 C   0  0  2  0  0  0  0  0  0  0  0  0
   31.3232   11.7065    8.7909 O   0  0  0  0  0  0  0  0  0  0  0  0
   31.3103    9.8490    7.3174 C   0  0  1  0  0  0  0  0  0  0  0  0
   30.3991    8.6042    7.0858 C   0  0  2  0  0  0  0  0  0  0  0  0
   29.2639    9.0542    7.7838 O   0  0  0  0  0  0  0  0  0  0  0  0
   30.9540    7.2251    7.4449 C   0  0  0  0  0  0  0  0  0  0  0  0
   30.0928    6.2809    6.8372 O   0  0  0  0  0  0  0  0  0  0  0  0
   31.2402   10.8260    5.0671 C   0  0  2  0  0  0  0  0  0  0  0  0
   30.9830   10.9865    6.3981 O   0  0  0  0  0  0  0  0  0  0  0  0
   30.8883   12.0494    4.2730 C   0  0  1  0  0  0  0  0  0  0  0  0
   28.4387    8.1916    2.6202 N   0  0  0  0  0  0  0  0  0  0  0  0
   24.0244   15.7947   10.8464 O   0  0  0  0  0  0  0  0  0  0  0  0
   31.1618   11.7765    2.7430 C   0  0  2  0  0  0  0  0  0  0  0  0
   30.3895   10.5345    2.1773 C   0  0  1  0  0  0  0  0  0  0  0  0
   30.7515    9.3696    2.9503 C   0  0  1  0  0  0  0  0  0  0  0  0
   30.4981    9.6067    4.4270 O   0  0  0  0  0  0  0  0  0  0  0  0
   29.9558    8.0901    2.4378 C   0  0  0  0  0  0  0  0  0  0  0  0
   29.5192   12.3469    4.4259 N   0  0  0  0  0  0  0  0  0  0  0  0
   29.6643    4.9648   11.5565 O   0  0  0  0  0  0  0  0  0  0  0  0
   24.6257   15.7263    8.6569 C   0  0  0  0  0  0  0  0  0  0  0  0
   29.2637   10.7243    2.2959 O   0  0  0  0  0  0  0  0  0  0  0  0
   32.2833   11.5560    2.6134 O   0  0  0  0  0  0  0  0  0  0  0  0
   24.1726   13.6203    9.6368 C   0  0  0  0  0  0  0  0  0  0  0  0
   24.0058   16.8374    8.1303 C   0  0  0  0  0  0  0  0  0  0  0  0
   23.8140   15.1946    9.5700 C   0  0  1  0  0  0  0  0  0  0  0  0
   27.6650    4.7523    9.8076 F   0  0  0  0  0  0  0  0  0  0  0  0
  1  2  1  6  0  0  0
  1 10  1  0  0  0  0
  1  3  1  0  0  0  0
  3  4  1  1  0  0  0
  3  6  1  0  0  0  0
  5 46  2  0  0  0  0
  6 42  1  1  0  0  0
  6  8  1  0  0  0  0
  7 47  1  0  0  0  0
  8  9  1  0  0  0  0
  8 49  1  1  0  0  0
  9 10  1  0  0  0  0
  9 11  1  6  0  0  0
 11 12  1  0  0  0  0
 13 14  1  1  0  0  0
 13 15  1  0  0  0  0
 13 21  1  0  0  0  0
 14 46  1  0  0  0  0
 15 16  1  0  0  0  0
 16 17  1  1  0  0  0
 16 18  1  0  0  0  0
 18  2  1  6  0  0  0
 18 19  1  0  0  0  0
 19 20  1  1  0  0  0
 19 21  1  0  0  0  0
 21 22  1  6  0  0  0
 23 20  1  1  0  0  0
 23 24  1  0  0  0  0
 23 28  1  0  0  0  0
 24 25  1  6  0  0  0
 24 26  1  0  0  0  0
 26 27  1  0  0  0  0
 26 32  1  6  0  0  0
 27 28  1  0  0  0  0
 27 29  1  1  0  0  0
 29 30  1  0  0  0  0
 31 32  1  1  0  0  0
 31 33  1  0  0  0  0
 31 39  1  0  0  0  0
 33 36  1  0  0  0  0
 33 41  1  6  0  0  0
 34 40  1  0  0  0  0
 35 48  1  0  0  0  0
 36 37  1  0  0  0  0
 36 45  1  1  0  0  0
 37 38  1  0  0  0  0
 37 44  1  1  0  0  0
 38 39  1  0  0  0  0
 38 40  1  6  0  0  0
 43 47  1  0  0  0  0
 46 48  1  0  0  0  0
 48 43  1  6  0  0  0
M  END
>  <CHROM.1>
173.59494094,44.37855035,70.29281631,-124.13512246,-174.67681415,153.92694315
173.89565331,-165.58457364,-178.93120807,-63.69985977,-167.53033983,-87.35473121
141.38925678,28.17603437,10.06274922,8.33273391,-2.62504063,0.91869800,-0.75150333

>  <Name>
ligand

>  <RI>
0

>  <Rbt.Current_Directory>
/home/itssahil/PROJECTS/Mol_Feturizer/New_Systems/rnas/4PDQ

>  <Rbt.Executable>
rbdock ($Id: //depot/dev/client3/rdock/2013.1/src/exe/rbdock.cxx#4 $)

>  <Rbt.Library>
libRbt.so (2013.1, Build901 2013/11/27)

>  <Rbt.Parameter_File>
/export/apps/rDock/src/rDock_2013.1_src/data/scripts/dock_solv.prm

>  <Rbt.Receptor>
prm/pocket_docking_7.prm

>  <SCORE>
-14.2824

>  <SCORE.INTER>
-2.2999

>  <SCORE.INTER.CONST>
1

>  <SCORE.INTER.POLAR>
0

>  <SCORE.INTER.ROT>
13

>  <SCORE.INTER.SOLV>
15.3823

>  <SCORE.INTER.VDW>
-18.9274

>  <SCORE.INTER.norm>
-0.0469367

>  <SCORE.INTRA>
-12.0134

>  <SCORE.INTRA.DIHEDRAL>
-23.5306

>  <SCORE.INTRA.DIHEDRAL.0>
34.5115

>  <SCORE.INTRA.POLAR>
0

>  <SCORE.INTRA.POLAR.0>
0

>  <SCORE.INTRA.REPUL>
0

>  <SCORE.INTRA.REPUL.0>
0

>  <SCORE.INTRA.SOLV>
-0.801666

>  <SCORE.INTRA.SOLV.lig_0>
-122.812

>  <SCORE.INTRA.VDW>
0.152739

>  <SCORE.INTRA.VDW.0>
-7.46208

>  <SCORE.INTRA.norm>
-0.245171

>  <SCORE.RESTR>
0.030865

>  <SCORE.RESTR.CAVITY>
0.030865

>  <SCORE.RESTR.norm>
0.000629898

>  <SCORE.SYSTEM>
0

>  <SCORE.SYSTEM.CONST>
0

>  <SCORE.SYSTEM.DIHEDRAL>
0

>  <SCORE.SYSTEM.SOLV>
0

>  <SCORE.SYSTEM.norm>
0

>  <SCORE.heavy>
49

>  <SCORE.norm>
-0.291478

>  <RMSD>
10.847

$$$$
ligand
 OpenBabel11021811513D
libRbt.so/2013.1/901 2013/11/27
 49 52  0  0  0  0  0  0  0  0999 V2000
   23.9492   17.1605    9.4214 C   0  0  2  0  0  0  0  0  0  0  0  0
   24.8808   16.5813   10.2866 O   0  0  0  0  0  0  0  0  0  0  0  0
   24.2781   16.7528    7.9372 C   0  0  2  0  0  0  0  0  0  0  0  0
   24.2423   15.2373    7.8170 N   0  0  0  0  0  0  0  0  0  0  0  0
   27.2373   11.9530   14.6011 O   0  0  0  0  0  0  0  0  0  0  0  0
   25.6535   17.3200    7.5149 C   0  0  2  0  0  0  0  0  0  0  0  0
   27.7926    7.8353   12.2539 N   0  0  0  0  0  0  0  0  0  0  0  0
   25.6717   18.8494    7.6637 C   0  0  2  0  0  0  0  0  0  0  0  0
   25.3419   19.2997    9.1497 C   0  0  2  0  0  0  0  0  0  0  0  0
   24.0025   18.6729    9.5413 O   0  0  0  0  0  0  0  0  0  0  0  0
   25.3074   20.8500    9.2802 C   0  0  0  0  0  0  0  0  0  0  0  0
   26.5526   21.4758    9.0123 N   0  0  0  0  0  0  0  0  0  0  0  0
   25.1672   13.1835   12.9655 C   0  0  2  0  0  0  0  0  0  0  0  0
   25.1005   11.7715   13.4438 N   0  0  0  0  0  0  0  0  0  0  0  0
   23.8124   13.4684   12.1531 C   0  0  0  0  0  0  0  0  0  0  0  0
   23.7881   14.9530   11.6301 C   0  0  2  0  0  0  0  0  0  0  0  0
   22.5604   15.2206   10.8666 N   0  0  0  0  0  0  0  0  0  0  0  0
   24.9963   15.2144   10.7087 C   0  0  2  0  0  0  0  0  0  0  0  0
   26.3503   14.9383   11.4790 C   0  0  2  0  0  0  0  0  0  0  0  0
   27.4369   15.2223   10.5208 O   0  0  0  0  0  0  0  0  0  0  0  0
   26.3787   13.3949   11.9465 C   0  0  1  0  0  0  0  0  0  0  0  0
   27.5799   13.1702   12.6146 O   0  0  0  0  0  0  0  0  0  0  0  0
   27.6966   14.5850    9.4303 C   0  0  1  0  0  0  0  0  0  0  0  0
   29.1968   14.2461    9.1870 C   0  0  2  0  0  0  0  0  0  0  0  0
   29.7648   15.2915    8.4628 O   0  0  0  0  0  0  0  0  0  0  0  0
   29.0178   13.0438    8.3561 C   0  0  1  0  0  0  0  0  0  0  0  0
   27.8184   12.2293    8.9317 C   0  0  2  0  0  0  0  0  0  0  0  0
   26.9891   13.3114    9.2778 O   0  0  0  0  0  0  0  0  0  0  0  0
   28.1060   11.1815   10.0079 C   0  0  0  0  0  0  0  0  0  0  0  0
   26.8768   10.5289   10.2642 O   0  0  0  0  0  0  0  0  0  0  0  0
   27.7208   12.9924    6.2732 C   0  0  2  0  0  0  0  0  0  0  0  0
   28.7734   13.5269    6.9586 O   0  0  0  0  0  0  0  0  0  0  0  0
   27.4205   13.7545    5.0162 C   0  0  1  0  0  0  0  0  0  0  0  0
   24.2005   11.5306    8.6958 N   0  0  0  0  0  0  0  0  0  0  0  0
   24.8006    9.6249   15.4475 O   0  0  0  0  0  0  0  0  0  0  0  0
   26.1659   13.1153    4.3038 C   0  0  2  0  0  0  0  0  0  0  0  0
   24.8878   13.0596    5.2105 C   0  0  1  0  0  0  0  0  0  0  0  0
   25.1984   12.3139    6.4076 C   0  0  1  0  0  0  0  0  0  0  0  0
   26.4030   12.9088    7.1119 O   0  0  0  0  0  0  0  0  0  0  0  0
   23.9393   12.2691    7.3800 C   0  0  0  0  0  0  0  0  0  0  0  0
   27.1117   15.0943    5.3261 N   0  0  0  0  0  0  0  0  0  0  0  0
   25.8506   17.0457    6.4230 O   0  0  0  0  0  0  0  0  0  0  0  0
   25.9855    9.0272   13.6039 C   0  0  0  0  0  0  0  0  0  0  0  0
   24.6057   14.1329    5.5039 O   0  0  0  0  0  0  0  0  0  0  0  0
   26.4249   12.0286    4.0296 O   0  0  0  0  0  0  0  0  0  0  0  0
   26.2482   11.2813   14.2753 C   0  0  0  0  0  0  0  0  0  0  0  0
   27.2691    8.6244   13.3105 C   0  0  0  0  0  0  0  0  0  0  0  0
   26.0244    9.7455   14.7255 C   0  0  1  0  0  0  0  0  0  0  0  0
   24.7150   19.4253    6.8091 F   0  0  0  0  0  0  0  0  0  0  0  0
  1  2  1  1  0  0  0
  1 10  1  0  0  0  0
  1  3  1  0  0  0  0
  3  4  1  1  0  0  0
  3  6  1  0  0  0  0
  5 46  2  0  0  0  0
  6 42  1  6  0  0  0
  6  8  1  0  0  0  0
  7 47  1  0  0  0  0
  8  9  1  0  0  0  0
  8 49  1  6  0  0  0
  9 10  1  0  0  0  0
  9 11  1  6  0  0  0
 11 12  1  0  0  0  0
 13 14  1  6  0  0  0
 13 15  1  0  0  0  0
 13 21  1  0  0  0  0
 14 46  1  0  0  0  0
 15 16  1  0  0  0  0
 16 17  1  6  0  0  0
 16 18  1  0  0  0  0
 18  2  1  1  0  0  0
 18 19  1  0  0  0  0
 19 20  1  6  0  0  0
 19 21  1  0  0  0  0
 21 22  1  1  0  0  0
 23 20  1  1  0  0  0
 23 24  1  0  0  0  0
 23 28  1  0  0  0  0
 24 25  1  6  0  0  0
 24 26  1  0  0  0  0
 26 27  1  0  0  0  0
 26 32  1  6  0  0  0
 27 28  1  0  0  0  0
 27 29  1  1  0  0  0
 29 30  1  0  0  0  0
 31 32  1  1  0  0  0
 31 33  1  0  0  0  0
 31 39  1  0  0  0  0
 33 36  1  0  0  0  0
 33 41  1  1  0  0  0
 34 40  1  0  0  0  0
 35 48  1  0  0  0  0
 36 37  1  0  0  0  0
 36 45  1  1  0  0  0
 37 38  1  0  0  0  0
 37 44  1  1  0  0  0
 38 39  1  0  0  0  0
 38 40  1  1  0  0  0
 43 47  1  0  0  0  0
 46 48  1  0  0  0  0
 48 43  1  6  0  0  0
M  END
>  <CHROM.1>
-74.20479464,-70.01883071,-63.36675336,-178.09155214,-65.16521680,-134.86974190
-131.75015322,-175.33731697,168.20631486,-178.23004753,179.12873450,-150.43843308
121.51826636,26.07408416,14.07531760,9.43897074,1.86861828,1.27079699,-0.99191759

>  <Name>
ligand

>  <RI>
0

>  <Rbt.Current_Directory>
/home/itssahil/PROJECTS/Mol_Feturizer/New_Systems/rnas/4PDQ

>  <Rbt.Executable>
rbdock ($Id: //depot/dev/client3/rdock/2013.1/src/exe/rbdock.cxx#4 $)

>  <Rbt.Library>
libRbt.so (2013.1, Build901 2013/11/27)

>  <Rbt.Parameter_File>
/export/apps/rDock/src/rDock_2013.1_src/data/scripts/dock_solv.prm

>  <Rbt.Receptor>
prm/blind_docking_80.prm

>  <SCORE>
22.7041

>  <SCORE.INTER>
9.91424

>  <SCORE.INTER.CONST>
1

>  <SCORE.INTER.POLAR>
0

>  <SCORE.INTER.ROT>
13

>  <SCORE.INTER.SOLV>
31.5884

>  <SCORE.INTER.VDW>
-16.1866

>  <SCORE.INTER.norm>
0.202332

>  <SCORE.INTRA>
8.15416

>  <SCORE.INTRA.DIHEDRAL>
-16.1049

>  <SCORE.INTRA.DIHEDRAL.0>
34.5115

>  <SCORE.INTRA.POLAR>
0

>  <SCORE.INTRA.POLAR.0>
0

>  <SCORE.INTRA.REPUL>
0.414603

>  <SCORE.INTRA.REPUL.0>
0

>  <SCORE.INTRA.SOLV>
13.6619

>  <SCORE.INTRA.SOLV.lig_0>
-122.812

>  <SCORE.INTRA.VDW>
7.30268

>  <SCORE.INTRA.VDW.0>
-7.46208

>  <SCORE.INTRA.norm>
0.166411

>  <SCORE.RESTR>
4.63573

>  <SCORE.RESTR.CAVITY>
4.63573

>  <SCORE.RESTR.norm>
0.0946067

>  <SCORE.SYSTEM>
0

>  <SCORE.SYSTEM.CONST>
0

>  <SCORE.SYSTEM.DIHEDRAL>
0

>  <SCORE.SYSTEM.SOLV>
0

>  <SCORE.SYSTEM.norm>
0

>  <SCORE.heavy>
49

>  <SCORE.norm>
0.46335

>  <RMSD>
10.854

$$$$
ligand
 OpenBabel11021811513D
libRbt.so/2013.1/901 2013/11/27
 49 52  0  0  0  0  0  0  0  0999 V2000
   23.8412   18.3490    8.1275 C   0  0  2  0  0  0  0  0  0  0  0  0
   23.7400   17.2283    8.9555 O   0  0  0  0  0  0  0  0  0  0  0  0
   22.8278   18.2179    6.9304 C   0  0  2  0  0  0  0  0  0  0  0  0
   21.4167   18.0932    7.4833 N   0  0  0  0  0  0  0  0  0  0  0  0
   26.4118   15.2317   13.7566 O   0  0  0  0  0  0  0  0  0  0  0  0
   23.1956   17.0054    6.0436 C   0  0  2  0  0  0  0  0  0  0  0  0
   25.8633   16.5156   18.0241 N   0  0  0  0  0  0  0  0  0  0  0  0
   24.6313   17.1444    5.5134 C   0  0  2  0  0  0  0  0  0  0  0  0
   25.6836   17.2812    6.6940 C   0  0  2  0  0  0  0  0  0  0  0  0
   25.2501   18.4564    7.5722 O   0  0  0  0  0  0  0  0  0  0  0  0
   27.1280   17.4773    6.1491 C   0  0  0  0  0  0  0  0  0  0  0  0
   27.2934   18.6542    5.3735 N   0  0  0  0  0  0  0  0  0  0  0  0
   26.5703   17.6915   12.2078 C   0  0  2  0  0  0  0  0  0  0  0  0
   27.1853   17.5340   13.5584 N   0  0  0  0  0  0  0  0  0  0  0  0
   25.0112   17.9983   12.4349 C   0  0  0  0  0  0  0  0  0  0  0  0
   24.2856   18.2042   11.0531 C   0  0  2  0  0  0  0  0  0  0  0  0
   22.8518   18.4661   11.2470 N   0  0  0  0  0  0  0  0  0  0  0  0
   24.4320   16.9421   10.1799 C   0  0  2  0  0  0  0  0  0  0  0  0
   25.9598   16.6087    9.9399 C   0  0  2  0  0  0  0  0  0  0  0  0
   25.9917   15.3990    9.0943 O   0  0  0  0  0  0  0  0  0  0  0  0
   26.6644   16.3381   11.3653 C   0  0  1  0  0  0  0  0  0  0  0  0
   28.0046   16.0391   11.1324 O   0  0  0  0  0  0  0  0  0  0  0  0
   25.5604   14.2239    9.4039 C   0  0  1  0  0  0  0  0  0  0  0  0
   24.0127   14.0536    9.4140 C   0  0  2  0  0  0  0  0  0  0  0  0
   23.5552   14.3298   10.7002 O   0  0  0  0  0  0  0  0  0  0  0  0
   23.9487   12.6139    9.1120 C   0  0  1  0  0  0  0  0  0  0  0  0
   25.0524   12.2887    8.0586 C   0  0  2  0  0  0  0  0  0  0  0  0
   26.0569   13.1411    8.5513 O   0  0  0  0  0  0  0  0  0  0  0  0
   24.6916   12.3975    6.5764 C   0  0  0  0  0  0  0  0  0  0  0  0
   24.8163   13.7659    6.2377 O   0  0  0  0  0  0  0  0  0  0  0  0
   25.4429   11.6525   10.8051 C   0  0  2  0  0  0  0  0  0  0  0  0
   24.1589   11.8984   10.4121 O   0  0  0  0  0  0  0  0  0  0  0  0
   25.9440   10.3311   10.3011 C   0  0  1  0  0  0  0  0  0  0  0  0
   25.9307   12.2551   15.0706 N   0  0  0  0  0  0  0  0  0  0  0  0
   29.1472   16.0072   15.5049 O   0  0  0  0  0  0  0  0  0  0  0  0
   27.4098   10.0899   10.8336 C   0  0  2  0  0  0  0  0  0  0  0  0
   27.5286   10.1431   12.3962 C   0  0  1  0  0  0  0  0  0  0  0  0
   27.0503   11.4258   12.8560 C   0  0  1  0  0  0  0  0  0  0  0  0
   25.6411   11.6825   12.3566 O   0  0  0  0  0  0  0  0  0  0  0  0
   27.1117   11.5081   14.4442 C   0  0  0  0  0  0  0  0  0  0  0  0
   25.1268    9.2891   10.7835 N   0  0  0  0  0  0  0  0  0  0  0  0
   22.4715   16.9559    5.1607 O   0  0  0  0  0  0  0  0  0  0  0  0
   27.4806   17.3630   16.2425 C   0  0  0  0  0  0  0  0  0  0  0  0
   26.8633    9.3184   12.8375 O   0  0  0  0  0  0  0  0  0  0  0  0
   28.0827   10.9270   10.4217 O   0  0  0  0  0  0  0  0  0  0  0  0
   27.0133   16.2053   14.2320 C   0  0  0  0  0  0  0  0  0  0  0  0
   26.2690   17.2638   16.8891 C   0  0  0  0  0  0  0  0  0  0  0  0
   27.7428   16.1869   15.6739 C   0  0  1  0  0  0  0  0  0  0  0  0
   24.7334   18.2877    4.7011 F   0  0  0  0  0  0  0  0  0  0  0  0
  1  2  1  1  0  0  0
  1 10  1  0  0  0  0
  1  3  1  0  0  0  0
  3  4  1  1  0  0  0
  3  6  1  0  0  0  0
  5 46  2  0  0  0  0
  6 42  1  6  0  0  0
  6  8  1  0  0  0  0
  7 47  1  0  0  0  0
  8  9  1  0  0  0  0
  8 49  1  6  0  0  0
  9 10  1  0  0  0  0
  9 11  1  6  0  0  0
 11 12  1  0  0  0  0
 13 14  1  1  0  0  0
 13 15  1  0  0  0  0
 13 21  1  0  0  0  0
 14 46  1  0  0  0  0
 15 16  1  0  0  0  0
 16 17  1  1  0  0  0
 16 18  1  0  0  0  0
 18  2  1  6  0  0  0
 18 19  1  0  0  0  0
 19 20  1  6  0  0  0
 19 21  1  0  0  0  0
 21 22  1  6  0  0  0
 23 20  1  6  0  0  0
 23 24  1  0  0  0  0
 23 28  1  0  0  0  0
 24 25  1  1  0  0  0
 24 26  1  0  0  0  0
 26 27  1  0  0  0  0
 26 32  1  1  0  0  0
 27 28  1  0  0  0  0
 27 29  1  6  0  0  0
 29 30  1  0  0  0  0
 31 32  1  1  0  0  0
 31 33  1  0  0  0  0
 31 39  1  0  0  0  0
 33 36  1  0  0  0  0
 33 41  1  1  0  0  0
 34 40  1  0  0  0  0
 35 48  1  0  0  0  0
 36 37  1  0  0  0  0
 36 45  1  6  0  0  0
 37 38  1  0  0  0  0
 37 44  1  1  0  0  0
 38 39  1  0  0  0  0
 38 40  1  1  0  0  0
 43 47  1  0  0  0  0
 46 48  1  0  0  0  0
 48 43  1  6  0  0  0
M  END
>  <CHROM.1>
-177.61608883,49.26959178,61.55673456,80.68319427,-63.98890210,74.14151795
-86.20848300,82.53083364,-90.00449247,-142.24043193,67.28255825,-154.64831109
100.70835307,25.57450462,15.02697963,10.42047568,-3.03429445,1.27287210,-2.78991987

>  <Name>
ligand

>  <RI>
0

>  <Rbt.Current_Directory>
/home/itssahil/PROJECTS/Mol_Feturizer/New_Systems/rnas/4PDQ

>  <Rbt.Executable>
rbdock ($Id: //depot/dev/client3/rdock/2013.1/src/exe/rbdock.cxx#4 $)

>  <Rbt.Library>
libRbt.so (2013.1, Build901 2013/11/27)

>  <Rbt.Parameter_File>
/export/apps/rDock/src/rDock_2013.1_src/data/scripts/dock_solv.prm

>  <Rbt.Receptor>
prm/blind_docking_40.prm

>  <SCORE>
-1.64773

>  <SCORE.INTER>
0.657507

>  <SCORE.INTER.CONST>
1

>  <SCORE.INTER.POLAR>
0

>  <SCORE.INTER.ROT>
13

>  <SCORE.INTER.SOLV>
33.9674

>  <SCORE.INTER.VDW>
-23.1508

>  <SCORE.INTER.norm>
0.0134185

>  <SCORE.INTRA>
-3.28552

>  <SCORE.INTRA.DIHEDRAL>
-17.4717

>  <SCORE.INTRA.DIHEDRAL.0>
34.5115

>  <SCORE.INTRA.POLAR>
0

>  <SCORE.INTRA.POLAR.0>
0

>  <SCORE.INTRA.REPUL>
0

>  <SCORE.INTRA.REPUL.0>
0

>  <SCORE.INTRA.SOLV>
3.35804

>  <SCORE.INTRA.SOLV.lig_0>
-122.812

>  <SCORE.INTRA.VDW>
3.7713

>  <SCORE.INTRA.VDW.0>
-7.46208

>  <SCORE.INTRA.norm>
-0.0670514

>  <SCORE.RESTR>
0.98028

>  <SCORE.RESTR.CAVITY>
0.98028

>  <SCORE.RESTR.norm>
0.0200057

>  <SCORE.SYSTEM>
0

>  <SCORE.SYSTEM.CONST>
0

>  <SCORE.SYSTEM.DIHEDRAL>
0

>  <SCORE.SYSTEM.SOLV>
0

>  <SCORE.SYSTEM.norm>
0

>  <SCORE.heavy>
49

>  <SCORE.norm>
-0.0336272

>  <RMSD>
10.857

$$$$
ligand
 OpenBabel11021811513D
libRbt.so/2013.1/901 2013/11/27
 49 52  0  0  0  0  0  0  0  0999 V2000
   24.7253   14.0331   10.9824 C   0  0  2  0  0  0  0  0  0  0  0  0
   25.3436   13.4968    9.8502 O   0  0  0  0  0  0  0  0  0  0  0  0
   25.1137   15.5511   11.1307 C   0  0  2  0  0  0  0  0  0  0  0  0
   24.6765   16.3017    9.8825 N   0  0  0  0  0  0  0  0  0  0  0  0
   28.1695    7.8483   12.6214 O   0  0  0  0  0  0  0  0  0  0  0  0
   26.6342   15.6969   11.3732 C   0  0  2  0  0  0  0  0  0  0  0  0
   28.5010    2.9434   11.5083 N   0  0  0  0  0  0  0  0  0  0  0  0
   27.0549   14.9145   12.6271 C   0  0  2  0  0  0  0  0  0  0  0  0
   26.6771   13.3768   12.5152 C   0  0  2  0  0  0  0  0  0  0  0  0
   25.1783   13.2842   12.2228 O   0  0  0  0  0  0  0  0  0  0  0  0
   27.0556   12.6020   13.8106 C   0  0  0  0  0  0  0  0  0  0  0  0
   26.7291   11.2215   13.7691 N   0  0  0  0  0  0  0  0  0  0  0  0
   26.6723    9.4609   10.7155 C   0  0  2  0  0  0  0  0  0  0  0  0
   26.9563    8.0097   10.5143 N   0  0  0  0  0  0  0  0  0  0  0  0
   25.1886    9.7296   10.1652 C   0  0  0  0  0  0  0  0  0  0  0  0
   24.7957   11.2413   10.3623 C   0  0  2  0  0  0  0  0  0  0  0  0
   23.4454   11.5046    9.8433 N   0  0  0  0  0  0  0  0  0  0  0  0
   25.7874   12.1529    9.6123 C   0  0  2  0  0  0  0  0  0  0  0  0
   27.2629   11.9096   10.1288 C   0  0  2  0  0  0  0  0  0  0  0  0
   28.1270   12.8273    9.3605 O   0  0  0  0  0  0  0  0  0  0  0  0
   27.6637   10.3713    9.8558 C   0  0  1  0  0  0  0  0  0  0  0  0
   28.9664   10.1796   10.3095 O   0  0  0  0  0  0  0  0  0  0  0  0
   27.7473   13.7992    8.6027 C   0  0  1  0  0  0  0  0  0  0  0  0
   28.8765   14.5116    7.8015 C   0  0  2  0  0  0  0  0  0  0  0  0
   29.3484   15.5734    8.5694 O   0  0  0  0  0  0  0  0  0  0  0  0
   28.0728   14.9811    6.6606 C   0  0  1  0  0  0  0  0  0  0  0  0
   27.0462   13.8643    6.2969 C   0  0  2  0  0  0  0  0  0  0  0  0
   26.7379   13.4426    7.6029 O   0  0  0  0  0  0  0  0  0  0  0  0
   27.4671   12.7968    5.2859 C   0  0  0  0  0  0  0  0  0  0  0  0
   26.2728   12.1879    4.8323 O   0  0  0  0  0  0  0  0  0  0  0  0
   26.4339   16.7732    6.3059 C   0  0  2  0  0  0  0  0  0  0  0  0
   27.4142   16.2533    7.1011 O   0  0  0  0  0  0  0  0  0  0  0  0
   26.4156   18.2731    6.3407 C   0  0  1  0  0  0  0  0  0  0  0  0
   22.5550   14.7236    6.7117 N   0  0  0  0  0  0  0  0  0  0  0  0
   27.9786    5.5768    9.8165 O   0  0  0  0  0  0  0  0  0  0  0  0
   25.2305   18.8027    5.4435 C   0  0  2  0  0  0  0  0  0  0  0  0
   23.8263   18.2436    5.8611 C   0  0  1  0  0  0  0  0  0  0  0  0
   23.8659   16.8009    5.8106 C   0  0  1  0  0  0  0  0  0  0  0  0
   24.9986   16.2658    6.6660 O   0  0  0  0  0  0  0  0  0  0  0  0
   22.4711   16.1875    6.2703 C   0  0  0  0  0  0  0  0  0  0  0  0
   26.2005   18.7228    7.6590 N   0  0  0  0  0  0  0  0  0  0  0  0
   26.8843   16.8027   11.5179 O   0  0  0  0  0  0  0  0  0  0  0  0
   29.1243    5.4033   11.7703 C   0  0  0  0  0  0  0  0  0  0  0  0
   23.6128   18.5720    6.9401 O   0  0  0  0  0  0  0  0  0  0  0  0
   25.4168   18.4557    4.3627 O   0  0  0  0  0  0  0  0  0  0  0  0
   27.7445    7.3171   11.5856 C   0  0  0  0  0  0  0  0  0  0  0  0
   29.3510    4.0787   11.4703 C   0  0  0  0  0  0  0  0  0  0  0  0
   27.9577    5.7549   11.2312 C   0  0  1  0  0  0  0  0  0  0  0  0
   26.4104   15.4425   13.7599 F   0  0  0  0  0  0  0  0  0  0  0  0
  1  2  1  6  0  0  0
  1 10  1  0  0  0  0
  1  3  1  0  0  0  0
  3  4  1  6  0  0  0
  3  6  1  0  0  0  0
  5 46  2  0  0  0  0
  6 42  1  1  0  0  0
  6  8  1  0  0  0  0
  7 47  1  0  0  0  0
  8  9  1  0  0  0  0
  8 49  1  1  0  0  0
  9 10  1  0  0  0  0
  9 11  1  1  0  0  0
 11 12  1  0  0  0  0
 13 14  1  6  0  0  0
 13 15  1  0  0  0  0
 13 21  1  0  0  0  0
 14 46  1  0  0  0  0
 15 16  1  0  0  0  0
 16 17  1  6  0  0  0
 16 18  1  0  0  0  0
 18  2  1  1  0  0  0
 18 19  1  0  0  0  0
 19 20  1  6  0  0  0
 19 21  1  0  0  0  0
 21 22  1  1  0  0  0
 23 20  1  6  0  0  0
 23 24  1  0  0  0  0
 23 28  1  0  0  0  0
 24 25  1  1  0  0  0
 24 26  1  0  0  0  0
 26 27  1  0  0  0  0
 26 32  1  1  0  0  0
 27 28  1  0  0  0  0
 27 29  1  6  0  0  0
 29 30  1  0  0  0  0
 31 32  1  1  0  0  0
 31 33  1  0  0  0  0
 31 39  1  0  0  0  0
 33 36  1  0  0  0  0
 33 41  1  1  0  0  0
 34 40  1  0  0  0  0
 35 48  1  0  0  0  0
 36 37  1  0  0  0  0
 36 45  1  6  0  0  0
 37 38  1  0  0  0  0
 37 44  1  1  0  0  0
 38 39  1  0  0  0  0
 38 40  1  1  0  0  0
 43 47  1  0  0  0  0
 46 48  1  0  0  0  0
 48 43  1  6  0  0  0
M  END
>  <CHROM.1>
149.53671248,33.15661466,179.51270453,-142.41641480,11.47602789,-174.08505584
-169.08411198,-162.26580622,-146.73814501,-159.95029873,-44.21408501,-59.66082917
-151.63920083,26.46226308,13.05461435,9.30508958,2.82062703,1.32739987,-1.66373678

>  <Name>
ligand

>  <RI>
0

>  <Rbt.Current_Directory>
/home/itssahil/PROJECTS/Mol_Feturizer/New_Systems/rnas/4PDQ

>  <Rbt.Executable>
rbdock ($Id: //depot/dev/client3/rdock/2013.1/src/exe/rbdock.cxx#4 $)

>  <Rbt.Library>
libRbt.so (2013.1, Build901 2013/11/27)

>  <Rbt.Parameter_File>
/export/apps/rDock/src/rDock_2013.1_src/data/scripts/dock_solv.prm

>  <Rbt.Receptor>
prm/blind_docking_60.prm

>  <SCORE>
6.07216

>  <SCORE.INTER>
-2.54616

>  <SCORE.INTER.CONST>
1

>  <SCORE.INTER.POLAR>
0

>  <SCORE.INTER.ROT>
13

>  <SCORE.INTER.SOLV>
26.299

>  <SCORE.INTER.VDW>
-22.7304

>  <SCORE.INTER.norm>
-0.0519625

>  <SCORE.INTRA>
6.6291

>  <SCORE.INTRA.DIHEDRAL>
-10.5047

>  <SCORE.INTRA.DIHEDRAL.0>
34.5115

>  <SCORE.INTRA.POLAR>
0

>  <SCORE.INTRA.POLAR.0>
0

>  <SCORE.INTRA.REPUL>
0.750355

>  <SCORE.INTRA.REPUL.0>
0

>  <SCORE.INTRA.SOLV>
4.53436

>  <SCORE.INTRA.SOLV.lig_0>
-122.812

>  <SCORE.INTRA.VDW>
5.86251

>  <SCORE.INTRA.VDW.0>
-7.46208

>  <SCORE.INTRA.norm>
0.135288

>  <SCORE.RESTR>
1.98923

>  <SCORE.RESTR.CAVITY>
1.98923

>  <SCORE.RESTR.norm>
0.0405964

>  <SCORE.SYSTEM>
0

>  <SCORE.SYSTEM.CONST>
0

>  <SCORE.SYSTEM.DIHEDRAL>
0

>  <SCORE.SYSTEM.SOLV>
0

>  <SCORE.SYSTEM.norm>
0

>  <SCORE.heavy>
49

>  <SCORE.norm>
0.123922

>  <RMSD>
10.857

$$$$
ligand
 OpenBabel11021811513D
libRbt.so/2013.1/901 2013/11/27
 49 52  0  0  0  0  0  0  0  0999 V2000
   27.9747   13.6436    7.3727 C   0  0  2  0  0  0  0  0  0  0  0  0
   27.5664   13.5498    8.7056 O   0  0  0  0  0  0  0  0  0  0  0  0
   28.3874   15.1271    7.0470 C   0  0  2  0  0  0  0  0  0  0  0  0
   29.5148   15.5465    7.9774 N   0  0  0  0  0  0  0  0  0  0  0  0
   28.3339    8.9864   12.1630 O   0  0  0  0  0  0  0  0  0  0  0  0
   27.1668   16.0674    7.1799 C   0  0  2  0  0  0  0  0  0  0  0  0
   29.1872    5.9852   11.1978 N   0  0  0  0  0  0  0  0  0  0  0  0
   26.0346   15.6121    6.2458 C   0  0  2  0  0  0  0  0  0  0  0  0
   25.5918   14.1172    6.5436 C   0  0  2  0  0  0  0  0  0  0  0  0
   26.8379   13.2342    6.4535 O   0  0  0  0  0  0  0  0  0  0  0  0
   24.4842   13.6447    5.5580 C   0  0  0  0  0  0  0  0  0  0  0  0
   23.3691   14.5196    5.4863 N   0  0  0  0  0  0  0  0  0  0  0  0
   25.9795   10.1990   10.9543 C   0  0  2  0  0  0  0  0  0  0  0  0
   25.9444    8.9027   11.6927 N   0  0  0  0  0  0  0  0  0  0  0  0
   26.8250    9.9522    9.6124 C   0  0  0  0  0  0  0  0  0  0  0  0
   26.8918   11.2711    8.7556 C   0  0  2  0  0  0  0  0  0  0  0  0
   27.6813   11.0632    7.5327 N   0  0  0  0  0  0  0  0  0  0  0  0
   27.5504   12.4033    9.5687 C   0  0  2  0  0  0  0  0  0  0  0  0
   26.7425   12.6696   10.9026 C   0  0  2  0  0  0  0  0  0  0  0  0
   27.4436   13.7663   11.5993 O   0  0  0  0  0  0  0  0  0  0  0  0
   26.7449   11.3235   11.7911 C   0  0  1  0  0  0  0  0  0  0  0  0
   26.0368   11.5804   12.9625 O   0  0  0  0  0  0  0  0  0  0  0  0
   27.2969   15.0318   11.3998 C   0  0  1  0  0  0  0  0  0  0  0  0
   26.0616   15.6849   12.0869 C   0  0  2  0  0  0  0  0  0  0  0  0
   24.9932   15.6346   11.1948 O   0  0  0  0  0  0  0  0  0  0  0  0
   26.5874   17.0530   12.2282 C   0  0  1  0  0  0  0  0  0  0  0  0
   28.0964   16.9565   12.6119 C   0  0  2  0  0  0  0  0  0  0  0  0
   28.4380   15.8557   11.8057 O   0  0  0  0  0  0  0  0  0  0  0  0
   28.4625   16.8920   14.0953 C   0  0  0  0  0  0  0  0  0  0  0  0
   27.9586   15.6595   14.5746 O   0  0  0  0  0  0  0  0  0  0  0  0
   25.2990   18.5739   10.7963 C   0  0  2  0  0  0  0  0  0  0  0  0
   26.3664   17.7304   10.9097 O   0  0  0  0  0  0  0  0  0  0  0  0
   24.2114   17.9956    9.9397 C   0  0  1  0  0  0  0  0  0  0  0  0
   25.8652   22.2278    8.2184 N   0  0  0  0  0  0  0  0  0  0  0  0
   25.9403    7.1055   13.9360 O   0  0  0  0  0  0  0  0  0  0  0  0
   23.0359   19.0404    9.8105 C   0  0  2  0  0  0  0  0  0  0  0  0
   23.4869   20.4271    9.2337 C   0  0  1  0  0  0  0  0  0  0  0  0
   24.5256   20.9673   10.0791 C   0  0  1  0  0  0  0  0  0  0  0  0
   25.6690   19.9804   10.2201 O   0  0  0  0  0  0  0  0  0  0  0  0
   25.0457   22.3578    9.5054 C   0  0  0  0  0  0  0  0  0  0  0  0
   24.7049   17.7307    8.6464 N   0  0  0  0  0  0  0  0  0  0  0  0
   27.4821   17.1296    6.8994 O   0  0  0  0  0  0  0  0  0  0  0  0
   26.8023    6.0863   12.0980 C   0  0  0  0  0  0  0  0  0  0  0  0
   23.9139   20.2592    8.1815 O   0  0  0  0  0  0  0  0  0  0  0  0
   22.6170   19.2402   10.8630 O   0  0  0  0  0  0  0  0  0  0  0  0
   27.2428    8.4062   12.2552 C   0  0  0  0  0  0  0  0  0  0  0  0
   27.9974    5.4797   11.7823 C   0  0  0  0  0  0  0  0  0  0  0  0
   27.0399    7.0047   13.0337 C   0  0  1  0  0  0  0  0  0  0  0  0
   26.4595   15.6847    4.9074 F   0  0  0  0  0  0  0  0  0  0  0  0
  1  2  1  1  0  0  0
  1 10  1  0  0  0  0
  1  3  1  0  0  0  0
  3  4  1  1  0  0  0
  3  6  1  0  0  0  0
  5 46  2  0  0  0  0
  6 42  1  6  0  0  0
  6  8  1  0  0  0  0
  7 47  1  0  0  0  0
  8  9  1  0  0  0  0
  8 49  1  6  0  0  0
  9 10  1  0  0  0  0
  9 11  1  6  0  0  0
 11 12  1  0  0  0  0
 13 14  1  1  0  0  0
 13 15  1  0  0  0  0
 13 21  1  0  0  0  0
 14 46  1  0  0  0  0
 15 16  1  0  0  0  0
 16 17  1  6  0  0  0
 16 18  1  0  0  0  0
 18  2  1  6  0  0  0
 18 19  1  0  0  0  0
 19 20  1  1  0  0  0
 19 21  1  0  0  0  0
 21 22  1  1  0  0  0
 23 20  1  1  0  0  0
 23 24  1  0  0  0  0
 23 28  1  0  0  0  0
 24 25  1  6  0  0  0
 24 26  1  0  0  0  0
 26 27  1  0  0  0  0
 26 32  1  6  0  0  0
 27 28  1  0  0  0  0
 27 29  1  1  0  0  0
 29 30  1  0  0  0  0
 31 32  1  6  0  0  0
 31 33  1  0  0  0  0
 31 39  1  0  0  0  0
 33 36  1  0  0  0  0
 33 41  1  6  0  0  0
 34 40  1  0  0  0  0
 35 48  1  0  0  0  0
 36 37  1  0  0  0  0
 36 45  1  1  0  0  0
 37 38  1  0  0  0  0
 37 44  1  6  0  0  0
 38 39  1  0  0  0  0
 38 40  1  6  0  0  0
 43 47  1  0  0  0  0
 46 48  1  0  0  0  0
 48 43  1  6  0  0  0
M  END
>  <CHROM.1>
-156.03224979,-47.73580105,-52.46065063,67.53257580,84.31555045,80.56067809
100.50999625,66.32762890,-108.44256774,-70.88749550,-63.91934857,-145.84398982
130.10585473,26.40850598,14.42571447,9.96272291,0.13666688,1.37952224,-1.93237464

>  <Name>
ligand

>  <RI>
0

>  <Rbt.Current_Directory>
/home/itssahil/PROJECTS/Mol_Feturizer/New_Systems/rnas/4PDQ

>  <Rbt.Executable>
rbdock ($Id: //depot/dev/client3/rdock/2013.1/src/exe/rbdock.cxx#4 $)

>  <Rbt.Library>
libRbt.so (2013.1, Build901 2013/11/27)

>  <Rbt.Parameter_File>
/export/apps/rDock/src/rDock_2013.1_src/data/scripts/dock_solv.prm

>  <Rbt.Receptor>
prm/blind_docking_100.prm

>  <SCORE>
10.9669

>  <SCORE.INTER>
2.42987

>  <SCORE.INTER.CONST>
1

>  <SCORE.INTER.POLAR>
0

>  <SCORE.INTER.ROT>
13

>  <SCORE.INTER.SOLV>
35.5831

>  <SCORE.INTER.VDW>
-22.5078

>  <SCORE.INTER.norm>
0.0495893

>  <SCORE.INTRA>
0.840852

>  <SCORE.INTRA.DIHEDRAL>
-9.90455

>  <SCORE.INTRA.DIHEDRAL.0>
34.5115

>  <SCORE.INTRA.POLAR>
0

>  <SCORE.INTRA.POLAR.0>
0

>  <SCORE.INTRA.REPUL>
0

>  <SCORE.INTRA.REPUL.0>
0

>  <SCORE.INTRA.SOLV>
5.6843

>  <SCORE.INTRA.SOLV.lig_0>
-122.812

>  <SCORE.INTRA.VDW>
2.95098

>  <SCORE.INTRA.VDW.0>
-7.46208

>  <SCORE.INTRA.norm>
0.0171603

>  <SCORE.RESTR>
7.6962

>  <SCORE.RESTR.CAVITY>
7.6962

>  <SCORE.RESTR.norm>
0.157065

>  <SCORE.SYSTEM>
0

>  <SCORE.SYSTEM.CONST>
0

>  <SCORE.SYSTEM.DIHEDRAL>
0

>  <SCORE.SYSTEM.SOLV>
0

>  <SCORE.SYSTEM.norm>
0

>  <SCORE.heavy>
49

>  <SCORE.norm>
0.223815

>  <RMSD>
10.864

$$$$
ligand
 OpenBabel11021811513D
libRbt.so/2013.1/901 2013/11/27
 49 52  0  0  0  0  0  0  0  0999 V2000
   27.5384   12.5995    6.3176 C   0  0  2  0  0  0  0  0  0  0  0  0
   27.6172   13.9799    6.5182 O   0  0  0  0  0  0  0  0  0  0  0  0
   26.3190   12.2682    5.3792 C   0  0  2  0  0  0  0  0  0  0  0  0
   26.5018   12.9870    4.0517 N   0  0  0  0  0  0  0  0  0  0  0  0
   26.3028   13.8268   13.2671 O   0  0  0  0  0  0  0  0  0  0  0  0
   24.9901   12.6706    6.0605 C   0  0  2  0  0  0  0  0  0  0  0  0
   27.8190   19.2266   15.3498 N   0  0  0  0  0  0  0  0  0  0  0  0
   24.8374   11.9474    7.4078 C   0  0  2  0  0  0  0  0  0  0  0  0
   26.0519   12.2564    8.3821 C   0  0  2  0  0  0  0  0  0  0  0  0
   27.3439   11.8938    7.6476 O   0  0  0  0  0  0  0  0  0  0  0  0
   25.9186   11.4772    9.7225 C   0  0  0  0  0  0  0  0  0  0  0  0
   26.9093   11.8126   10.6817 N   0  0  0  0  0  0  0  0  0  0  0  0
   27.5180   14.7432   10.7855 C   0  0  2  0  0  0  0  0  0  0  0  0
   27.6342   15.4839   12.0759 N   0  0  0  0  0  0  0  0  0  0  0  0
   28.8296   15.0877    9.9267 C   0  0  0  0  0  0  0  0  0  0  0  0
   28.8008   14.3234    8.5507 C   0  0  2  0  0  0  0  0  0  0  0  0
   29.9880   14.6466    7.7458 N   0  0  0  0  0  0  0  0  0  0  0  0
   27.5481   14.7216    7.7449 C   0  0  2  0  0  0  0  0  0  0  0  0
   26.2352   14.3986    8.5664 C   0  0  2  0  0  0  0  0  0  0  0  0
   25.1019   14.8059    7.7125 O   0  0  0  0  0  0  0  0  0  0  0  0
   26.2588   15.2435    9.9401 C   0  0  1  0  0  0  0  0  0  0  0  0
   25.0930   14.9519   10.6441 O   0  0  0  0  0  0  0  0  0  0  0  0
   24.7143   16.0094    7.4590 C   0  0  1  0  0  0  0  0  0  0  0  0
   24.5828   16.3728    5.9506 C   0  0  2  0  0  0  0  0  0  0  0  0
   25.7996   16.9001    5.5248 O   0  0  0  0  0  0  0  0  0  0  0  0
   23.5493   17.4152    6.0657 C   0  0  1  0  0  0  0  0  0  0  0  0
   22.5220   16.9636    7.1492 C   0  0  2  0  0  0  0  0  0  0  0  0
   23.4279   16.3802    8.0534 O   0  0  0  0  0  0  0  0  0  0  0  0
   21.3230   16.1252    6.7038 C   0  0  0  0  0  0  0  0  0  0  0  0
   20.5581   15.8776    7.8684 O   0  0  0  0  0  0  0  0  0  0  0  0
   23.6842   19.4907    7.3686 C   0  0  2  0  0  0  0  0  0  0  0  0
   24.2628   18.6805    6.4346 O   0  0  0  0  0  0  0  0  0  0  0  0
   24.5362   20.6843    7.6857 C   0  0  1  0  0  0  0  0  0  0  0  0
   23.6450   18.0649   11.6795 N   0  0  0  0  0  0  0  0  0  0  0  0
   28.4274   15.4684   15.1863 O   0  0  0  0  0  0  0  0  0  0  0  0
   23.8333   21.5463    8.8051 C   0  0  2  0  0  0  0  0  0  0  0  0
   23.5295   20.7454   10.1185 C   0  0  1  0  0  0  0  0  0  0  0  0
   22.7015   19.6088    9.7896 C   0  0  1  0  0  0  0  0  0  0  0  0
   23.3556   18.7628    8.7138 O   0  0  0  0  0  0  0  0  0  0  0  0
   22.4036   18.7402   11.0896 C   0  0  0  0  0  0  0  0  0  0  0  0
   25.7888   20.2662    8.1782 N   0  0  0  0  0  0  0  0  0  0  0  0
   24.1194   12.3832    5.3782 O   0  0  0  0  0  0  0  0  0  0  0  0
   27.1600   17.0597   14.1756 C   0  0  0  0  0  0  0  0  0  0  0  0
   24.5241   20.3682   10.5500 O   0  0  0  0  0  0  0  0  0  0  0  0
   22.8207   21.9074    8.3959 O   0  0  0  0  0  0  0  0  0  0  0  0
   26.9480   14.8848   13.2670 C   0  0  0  0  0  0  0  0  0  0  0  0
   27.4443   17.8612   15.2585 C   0  0  0  0  0  0  0  0  0  0  0  0
   27.1755   15.7918   14.5850 C   0  0  1  0  0  0  0  0  0  0  0  0
   24.7838   10.5574    7.2019 F   0  0  0  0  0  0  0  0  0  0  0  0
  1  2  1  1  0  0  0
  1 10  1  0  0  0  0
  1  3  1  0  0  0  0
  3  4  1  6  0  0  0
  3  6  1  0  0  0  0
  5 46  2  0  0  0  0
  6 42  1  6  0  0  0
  6  8  1  0  0  0  0
  7 47  1  0  0  0  0
  8  9  1  0  0  0  0
  8 49  1  6  0  0  0
  9 10  1  0  0  0  0
  9 11  1  1  0  0  0
 11 12  1  0  0  0  0
 13 14  1  1  0  0  0
 13 15  1  0  0  0  0
 13 21  1  0  0  0  0
 14 46  1  0  0  0  0
 15 16  1  0  0  0  0
 16 17  1  6  0  0  0
 16 18  1  0  0  0  0
 18  2  1  6  0  0  0
 18 19  1  0  0  0  0
 19 20  1  6  0  0  0
 19 21  1  0  0  0  0
 21 22  1  1  0  0  0
 23 20  1  6  0  0  0
 23 24  1  0  0  0  0
 23 28  1  0  0  0  0
 24 25  1  1  0  0  0
 24 26  1  0  0  0  0
 26 27  1  0  0  0  0
 26 32  1  1  0  0  0
 27 28  1  0  0  0  0
 27 29  1  6  0  0  0
 29 30  1  0  0  0  0
 31 32  1  6  0  0  0
 31 33  1  0  0  0  0
 31 39  1  0  0  0  0
 33 36  1  0  0  0  0
 33 41  1  1  0  0  0
 34 40  1  0  0  0  0
 35 48  1  0  0  0  0
 36 37  1  0  0  0  0
 36 45  1  6  0  0  0
 37 38  1  0  0  0  0
 37 44  1  6  0  0  0
 38 39  1  0  0  0  0
 38 40  1  1  0  0  0
 43 47  1  0  0  0  0
 46 48  1  0  0  0  0
 48 43  1  6  0  0  0
M  END
>  <CHROM.1>
120.27807441,65.69940722,-174.32536951,-151.91562127,-73.94669442,126.54710264
-138.89732074,-179.16853428,177.32033849,-66.10422052,165.34938873,-56.45030560
95.52654774,25.45703735,15.89587047,9.02853540,-1.23445868,-0.96443930,0.81731630

>  <Name>
ligand

>  <RI>
0

>  <Rbt.Current_Directory>
/home/itssahil/PROJECTS/Mol_Feturizer/New_Systems/rnas/4PDQ

>  <Rbt.Executable>
rbdock ($Id: //depot/dev/client3/rdock/2013.1/src/exe/rbdock.cxx#4 $)

>  <Rbt.Library>
libRbt.so (2013.1, Build901 2013/11/27)

>  <Rbt.Parameter_File>
/export/apps/rDock/src/rDock_2013.1_src/data/scripts/dock_solv.prm

>  <Rbt.Receptor>
prm/blind_docking_40.prm

>  <SCORE>
30.2365

>  <SCORE.INTER>
9.15188

>  <SCORE.INTER.CONST>
1

>  <SCORE.INTER.POLAR>
0

>  <SCORE.INTER.ROT>
13

>  <SCORE.INTER.SOLV>
32.0647

>  <SCORE.INTER.VDW>
-16.8537

>  <SCORE.INTER.norm>
0.186773

>  <SCORE.INTRA>
17.6095

>  <SCORE.INTRA.DIHEDRAL>
-10.6105

>  <SCORE.INTRA.DIHEDRAL.0>
34.5115

>  <SCORE.INTRA.POLAR>
0

>  <SCORE.INTRA.POLAR.0>
0

>  <SCORE.INTRA.REPUL>
0

>  <SCORE.INTRA.REPUL.0>
0

>  <SCORE.INTRA.SOLV>
6.06448

>  <SCORE.INTRA.SOLV.lig_0>
-122.812

>  <SCORE.INTRA.VDW>
19.8825

>  <SCORE.INTRA.VDW.0>
-7.46208

>  <SCORE.INTRA.norm>
0.359377

>  <SCORE.RESTR>
3.47511

>  <SCORE.RESTR.CAVITY>
3.47511

>  <SCORE.RESTR.norm>
0.0709206

>  <SCORE.SYSTEM>
0

>  <SCORE.SYSTEM.CONST>
0

>  <SCORE.SYSTEM.DIHEDRAL>
0

>  <SCORE.SYSTEM.SOLV>
0

>  <SCORE.SYSTEM.norm>
0

>  <SCORE.heavy>
49

>  <SCORE.norm>
0.617071

>  <RMSD>
10.874

$$$$
ligand
 OpenBabel11021811513D
libRbt.so/2013.1/901 2013/11/27
 49 52  0  0  0  0  0  0  0  0999 V2000
   27.6122   15.5208    7.4712 C   0  0  2  0  0  0  0  0  0  0  0  0
   26.5419   15.6562    8.3590 O   0  0  0  0  0  0  0  0  0  0  0  0
   27.4234   16.5055    6.2579 C   0  0  2  0  0  0  0  0  0  0  0  0
   27.3457   17.9314    6.7807 N   0  0  0  0  0  0  0  0  0  0  0  0
   28.0664   10.2897   11.9313 O   0  0  0  0  0  0  0  0  0  0  0  0
   26.1583   16.1303    5.4514 C   0  0  2  0  0  0  0  0  0  0  0  0
   25.3269   12.1441   15.2520 N   0  0  0  0  0  0  0  0  0  0  0  0
   26.2513   14.6803    4.9512 C   0  0  2  0  0  0  0  0  0  0  0  0
   26.4443   13.6563    6.1486 C   0  0  2  0  0  0  0  0  0  0  0  0
   27.6725   14.0973    6.9470 O   0  0  0  0  0  0  0  0  0  0  0  0
   26.5934   12.1964    5.6306 C   0  0  0  0  0  0  0  0  0  0  0  0
   26.0548   11.2191    6.5074 N   0  0  0  0  0  0  0  0  0  0  0  0
   26.1093   11.9290   10.5324 C   0  0  2  0  0  0  0  0  0  0  0  0
   25.7505   10.9859   11.6318 N   0  0  0  0  0  0  0  0  0  0  0  0
   26.8337   13.1894   11.2129 C   0  0  0  0  0  0  0  0  0  0  0  0
   27.2707   14.2297   10.1151 C   0  0  2  0  0  0  0  0  0  0  0  0
   27.9179   15.3991   10.7280 N   0  0  0  0  0  0  0  0  0  0  0  0
   26.0414   14.7182    9.3230 C   0  0  2  0  0  0  0  0  0  0  0  0
   25.3005   13.4976    8.6418 C   0  0  2  0  0  0  0  0  0  0  0  0
   24.1529   14.0671    7.9082 O   0  0  0  0  0  0  0  0  0  0  0  0
   24.8062   12.4803    9.7917 C   0  0  1  0  0  0  0  0  0  0  0  0
   24.1506   11.4185    9.1733 O   0  0  0  0  0  0  0  0  0  0  0  0
   23.1839   14.7609    8.4006 C   0  0  1  0  0  0  0  0  0  0  0  0
   21.7519   14.2255    8.1052 C   0  0  2  0  0  0  0  0  0  0  0  0
   21.3011   14.8208    6.9295 O   0  0  0  0  0  0  0  0  0  0  0  0
   21.0657   14.7711    9.2882 C   0  0  1  0  0  0  0  0  0  0  0  0
   22.0250   14.6377   10.5111 C   0  0  2  0  0  0  0  0  0  0  0  0
   23.2310   14.9404    9.8536 O   0  0  0  0  0  0  0  0  0  0  0  0
   21.9689   13.3518   11.3371 C   0  0  0  0  0  0  0  0  0  0  0  0
   22.9815   13.4671   12.3189 O   0  0  0  0  0  0  0  0  0  0  0  0
   21.7667   17.0694    8.7885 C   0  0  2  0  0  0  0  0  0  0  0  0
   20.7324   16.1962    8.9652 O   0  0  0  0  0  0  0  0  0  0  0  0
   21.5809   18.3313    9.5786 C   0  0  1  0  0  0  0  0  0  0  0  0
   24.2837   19.8459    5.1484 N   0  0  0  0  0  0  0  0  0  0  0  0
   27.1266    8.0646   13.4996 O   0  0  0  0  0  0  0  0  0  0  0  0
   22.7825   19.3121    9.2882 C   0  0  2  0  0  0  0  0  0  0  0  0
   22.9606   19.6569    7.7689 C   0  0  1  0  0  0  0  0  0  0  0  0
   23.1472   18.4291    7.0317 C   0  0  1  0  0  0  0  0  0  0  0  0
   22.0038   17.4675    7.2943 O   0  0  0  0  0  0  0  0  0  0  0  0
   23.2887   18.7285    5.4750 C   0  0  0  0  0  0  0  0  0  0  0  0
   20.3885   18.9737    9.1889 N   0  0  0  0  0  0  0  0  0  0  0  0
   26.0659   16.8327    4.5546 O   0  0  0  0  0  0  0  0  0  0  0  0
   26.4189    9.9449   14.5597 C   0  0  0  0  0  0  0  0  0  0  0  0
   22.0023   20.1699    7.4000 O   0  0  0  0  0  0  0  0  0  0  0  0
   23.7542   18.7981    9.6271 O   0  0  0  0  0  0  0  0  0  0  0  0
   26.8722   10.2073   12.2518 C   0  0  0  0  0  0  0  0  0  0  0  0
   25.4584   10.9310   14.5283 C   0  0  0  0  0  0  0  0  0  0  0  0
   26.3284    9.2442   13.4300 C   0  0  1  0  0  0  0  0  0  0  0  0
   27.3450   14.5441    4.0779 F   0  0  0  0  0  0  0  0  0  0  0  0
  1  2  1  1  0  0  0
  1 10  1  0  0  0  0
  1  3  1  0  0  0  0
  3  4  1  1  0  0  0
  3  6  1  0  0  0  0
  5 46  2  0  0  0  0
  6 42  1  6  0  0  0
  6  8  1  0  0  0  0
  7 47  1  0  0  0  0
  8  9  1  0  0  0  0
  8 49  1  6  0  0  0
  9 10  1  0  0  0  0
  9 11  1  6  0  0  0
 11 12  1  0  0  0  0
 13 14  1  1  0  0  0
 13 15  1  0  0  0  0
 13 21  1  0  0  0  0
 14 46  1  0  0  0  0
 15 16  1  0  0  0  0
 16 17  1  1  0  0  0
 16 18  1  0  0  0  0
 18  2  1  6  0  0  0
 18 19  1  0  0  0  0
 19 20  1  1  0  0  0
 19 21  1  0  0  0  0
 21 22  1  6  0  0  0
 23 20  1  1  0  0  0
 23 24  1  0  0  0  0
 23 28  1  0  0  0  0
 24 25  1  6  0  0  0
 24 26  1  0  0  0  0
 26 27  1  0  0  0  0
 26 32  1  6  0  0  0
 27 28  1  0  0  0  0
 27 29  1  6  0  0  0
 29 30  1  0  0  0  0
 31 32  1  6  0  0  0
 31 33  1  0  0  0  0
 31 39  1  0  0  0  0
 33 36  1  0  0  0  0
 33 41  1  6  0  0  0
 34 40  1  0  0  0  0
 35 48  1  0  0  0  0
 36 37  1  0  0  0  0
 36 45  1  6  0  0  0
 37 38  1  0  0  0  0
 37 44  1  6  0  0  0
 38 39  1  0  0  0  0
 38 40  1  6  0  0  0
 43 47  1  0  0  0  0
 46 48  1  0  0  0  0
 48 43  1  1  0  0  0
M  END
>  <CHROM.1>
156.93303802,49.17232586,-147.29717487,-73.81649709,-58.85666743,-125.26910457
-65.44567592,176.72616082,-131.05421768,48.38154777,-160.65628055,-169.51892004
-32.67039100,24.72815580,14.68623548,8.94397759,-1.94487813,-0.64856681,2.25848037

>  <Name>
ligand

>  <RI>
0

>  <Rbt.Current_Directory>
/home/itssahil/PROJECTS/Mol_Feturizer/New_Systems/rnas/4PDQ

>  <Rbt.Executable>
rbdock ($Id: //depot/dev/client3/rdock/2013.1/src/exe/rbdock.cxx#4 $)

>  <Rbt.Library>
libRbt.so (2013.1, Build901 2013/11/27)

>  <Rbt.Parameter_File>
/export/apps/rDock/src/rDock_2013.1_src/data/scripts/dock_solv.prm

>  <Rbt.Receptor>
prm/blind_docking_40.prm

>  <SCORE>
4.59656

>  <SCORE.INTER>
0.950953

>  <SCORE.INTER.CONST>
1

>  <SCORE.INTER.POLAR>
0

>  <SCORE.INTER.ROT>
13

>  <SCORE.INTER.SOLV>
35.2792

>  <SCORE.INTER.VDW>
-23.3924

>  <SCORE.INTER.norm>
0.0194072

>  <SCORE.INTRA>
1.35166

>  <SCORE.INTRA.DIHEDRAL>
-10.7056

>  <SCORE.INTRA.DIHEDRAL.0>
34.5115

>  <SCORE.INTRA.POLAR>
0

>  <SCORE.INTRA.POLAR.0>
0

>  <SCORE.INTRA.REPUL>
0.00998846

>  <SCORE.INTRA.REPUL.0>
0

>  <SCORE.INTRA.SOLV>
4.38304

>  <SCORE.INTRA.SOLV.lig_0>
-122.812

>  <SCORE.INTRA.VDW>
4.46298

>  <SCORE.INTRA.VDW.0>
-7.46208

>  <SCORE.INTRA.norm>
0.0275849

>  <SCORE.RESTR>
2.29395

>  <SCORE.RESTR.CAVITY>
2.29395

>  <SCORE.RESTR.norm>
0.0468153

>  <SCORE.SYSTEM>
0

>  <SCORE.SYSTEM.CONST>
0

>  <SCORE.SYSTEM.DIHEDRAL>
0

>  <SCORE.SYSTEM.SOLV>
0

>  <SCORE.SYSTEM.norm>
0

>  <SCORE.heavy>
49

>  <SCORE.norm>
0.0938074

>  <RMSD>
10.874

$$$$
ligand
 OpenBabel11021811513D
libRbt.so/2013.1/901 2013/11/27
 49 52  0  0  0  0  0  0  0  0999 V2000
   25.9424   14.5026    8.3128 C   0  0  2  0  0  0  0  0  0  0  0  0
   25.5572   13.2503    8.7980 O   0  0  0  0  0  0  0  0  0  0  0  0
   25.2312   14.7804    6.9365 C   0  0  2  0  0  0  0  0  0  0  0  0
   23.7244   14.7296    7.1349 N   0  0  0  0  0  0  0  0  0  0  0  0
   25.7115    7.2257   11.1293 O   0  0  0  0  0  0  0  0  0  0  0  0
   25.6953   13.7570    5.8740 C   0  0  2  0  0  0  0  0  0  0  0  0
   29.7921    5.3849   10.6810 N   0  0  0  0  0  0  0  0  0  0  0  0
   27.2218   13.8132    5.7058 C   0  0  2  0  0  0  0  0  0  0  0  0
   27.9750   13.5392    7.0759 C   0  0  2  0  0  0  0  0  0  0  0  0
   27.4461   14.5375    8.1074 O   0  0  0  0  0  0  0  0  0  0  0  0
   29.5181   13.6526    6.9097 C   0  0  0  0  0  0  0  0  0  0  0  0
   30.2470   13.3197    8.0809 N   0  0  0  0  0  0  0  0  0  0  0  0
   26.4933   10.0032   11.5151 C   0  0  2  0  0  0  0  0  0  0  0  0
   27.2302    8.8544   12.1186 N   0  0  0  0  0  0  0  0  0  0  0  0
   26.4493    9.7522    9.9303 C   0  0  0  0  0  0  0  0  0  0  0  0
   25.6635   10.9122    9.2126 C   0  0  2  0  0  0  0  0  0  0  0  0
   25.6336   10.7040    7.7574 N   0  0  0  0  0  0  0  0  0  0  0  0
   26.3406   12.2687    9.4925 C   0  0  2  0  0  0  0  0  0  0  0  0
   26.4041   12.5455   11.0489 C   0  0  2  0  0  0  0  0  0  0  0  0
   27.0571   13.8598   11.2092 O   0  0  0  0  0  0  0  0  0  0  0  0
   27.2690   11.3791   11.7509 C   0  0  1  0  0  0  0  0  0  0  0  0
   27.3198   11.6447   13.1171 O   0  0  0  0  0  0  0  0  0  0  0  0
   26.5714   15.0117   10.8929 C   0  0  1  0  0  0  0  0  0  0  0  0
   25.1792   15.3483   11.5036 C   0  0  2  0  0  0  0  0  0  0  0  0
   24.1999   14.9247   10.6083 O   0  0  0  0  0  0  0  0  0  0  0  0
   25.2981   16.8157   11.5246 C   0  0  1  0  0  0  0  0  0  0  0  0
   26.7595   17.1791   11.9319 C   0  0  2  0  0  0  0  0  0  0  0  0
   27.4228   16.1538   11.2339 O   0  0  0  0  0  0  0  0  0  0  0  0
   27.0752   17.3462   13.4189 C   0  0  0  0  0  0  0  0  0  0  0  0
   26.9655   16.0581   13.9945 O   0  0  0  0  0  0  0  0  0  0  0  0
   24.7073   18.6220    9.9717 C   0  0  2  0  0  0  0  0  0  0  0  0
   24.9452   17.2893   10.1471 O   0  0  0  0  0  0  0  0  0  0  0  0
   24.6855   19.0051    8.5212 C   0  0  1  0  0  0  0  0  0  0  0  0
   26.4834   23.3744   11.2344 N   0  0  0  0  0  0  0  0  0  0  0  0
   27.1371    6.1061   13.8630 O   0  0  0  0  0  0  0  0  0  0  0  0
   24.4578   20.5614    8.3944 C   0  0  2  0  0  0  0  0  0  0  0  0
   25.5284   21.4182    9.1550 C   0  0  1  0  0  0  0  0  0  0  0  0
   25.5237   21.0390   10.5484 C   0  0  1  0  0  0  0  0  0  0  0  0
   25.7406   19.5451   10.6978 O   0  0  0  0  0  0  0  0  0  0  0  0
   26.6287   21.8545   11.3528 C   0  0  0  0  0  0  0  0  0  0  0  0
   25.9222   18.6940    7.9211 N   0  0  0  0  0  0  0  0  0  0  0  0
   25.1972   14.0042    4.8755 O   0  0  0  0  0  0  0  0  0  0  0  0
   27.4978    5.2532   11.7887 C   0  0  0  0  0  0  0  0  0  0  0  0
   26.5604   21.1852    8.7098 O   0  0  0  0  0  0  0  0  0  0  0  0
   23.4381   20.8135    8.8633 O   0  0  0  0  0  0  0  0  0  0  0  0
   26.7009    7.4812   11.8303 C   0  0  0  0  0  0  0  0  0  0  0  0
   28.3744    5.3684   10.7332 C   0  0  0  0  0  0  0  0  0  0  0  0
   27.6093    6.3484   12.5395 C   0  0  1  0  0  0  0  0  0  0  0  0
   27.6060   15.0836    5.2412 F   0  0  0  0  0  0  0  0  0  0  0  0
  1  2  1  6  0  0  0
  1 10  1  0  0  0  0
  1  3  1  0  0  0  0
  3  4  1  1  0  0  0
  3  6  1  0  0  0  0
  5 46  2  0  0  0  0
  6 42  1  6  0  0  0
  6  8  1  0  0  0  0
  7 47  1  0  0  0  0
  8  9  1  0  0  0  0
  8 49  1  1  0  0  0
  9 10  1  0  0  0  0
  9 11  1  6  0  0  0
 11 12  1  0  0  0  0
 13 14  1  1  0  0  0
 13 15  1  0  0  0  0
 13 21  1  0  0  0  0
 14 46  1  0  0  0  0
 15 16  1  0  0  0  0
 16 17  1  6  0  0  0
 16 18  1  0  0  0  0
 18  2  1  6  0  0  0
 18 19  1  0  0  0  0
 19 20  1  6  0  0  0
 19 21  1  0  0  0  0
 21 22  1  1  0  0  0
 23 20  1  1  0  0  0
 23 24  1  0  0  0  0
 23 28  1  0  0  0  0
 24 25  1  6  0  0  0
 24 26  1  0  0  0  0
 26 27  1  0  0  0  0
 26 32  1  6  0  0  0
 27 28  1  0  0  0  0
 27 29  1  1  0  0  0
 29 30  1  0  0  0  0
 31 32  1  6  0  0  0
 31 33  1  0  0  0  0
 31 39  1  0  0  0  0
 33 36  1  0  0  0  0
 33 41  1  1  0  0  0
 34 40  1  0  0  0  0
 35 48  1  0  0  0  0
 36 37  1  0  0  0  0
 36 45  1  1  0  0  0
 37 38  1  0  0  0  0
 37 44  1  6  0  0  0
 38 39  1  0  0  0  0
 38 40  1  1  0  0  0
 43 47  1  0  0  0  0
 46 48  1  0  0  0  0
 48 43  1  6  0  0  0
M  END
>  <CHROM.1>
142.27150953,-154.52140889,-175.57429800,-56.13375281,69.45998622,54.13762830
166.62034510,68.44257495,166.60174586,56.20744051,66.88192517,-158.42554601
-92.75056670,26.41532057,14.23650771,9.85498380,3.03458073,-1.42739062,1.33438044

>  <Name>
ligand

>  <RI>
0

>  <Rbt.Current_Directory>
/home/itssahil/PROJECTS/Mol_Feturizer/New_Systems/rnas/4PDQ

>  <Rbt.Executable>
rbdock ($Id: //depot/dev/client3/rdock/2013.1/src/exe/rbdock.cxx#4 $)

>  <Rbt.Library>
libRbt.so (2013.1, Build901 2013/11/27)

>  <Rbt.Parameter_File>
/export/apps/rDock/src/rDock_2013.1_src/data/scripts/dock_solv.prm

>  <Rbt.Receptor>
prm/blind_docking_100.prm

>  <SCORE>
0.296666

>  <SCORE.INTER>
-2.8459

>  <SCORE.INTER.CONST>
1

>  <SCORE.INTER.POLAR>
0

>  <SCORE.INTER.ROT>
13

>  <SCORE.INTER.SOLV>
27.3534

>  <SCORE.INTER.VDW>
-23.2817

>  <SCORE.INTER.norm>
-0.0580796

>  <SCORE.INTRA>
-6.22984

>  <SCORE.INTRA.DIHEDRAL>
-20.801

>  <SCORE.INTRA.DIHEDRAL.0>
34.5115

>  <SCORE.INTRA.POLAR>
0

>  <SCORE.INTRA.POLAR.0>
0

>  <SCORE.INTRA.REPUL>
0

>  <SCORE.INTRA.REPUL.0>
0

>  <SCORE.INTRA.SOLV>
0.666526

>  <SCORE.INTRA.SOLV.lig_0>
-122.812

>  <SCORE.INTRA.VDW>
3.83741

>  <SCORE.INTRA.VDW.0>
-7.46208

>  <SCORE.INTRA.norm>
-0.12714

>  <SCORE.RESTR>
9.37241

>  <SCORE.RESTR.CAVITY>
9.37241

>  <SCORE.RESTR.norm>
0.191274

>  <SCORE.SYSTEM>
0

>  <SCORE.SYSTEM.CONST>
0

>  <SCORE.SYSTEM.DIHEDRAL>
0

>  <SCORE.SYSTEM.SOLV>
0

>  <SCORE.SYSTEM.norm>
0

>  <SCORE.heavy>
49

>  <SCORE.norm>
0.00605441

>  <RMSD>
10.876

$$$$
ligand
 OpenBabel11021811513D
libRbt.so/2013.1/901 2013/11/27
 49 52  0  0  0  0  0  0  0  0999 V2000
   27.0260   13.4160    7.4665 C   0  0  2  0  0  0  0  0  0  0  0  0
   27.1204   13.5352    8.8553 O   0  0  0  0  0  0  0  0  0  0  0  0
   27.7565   14.6286    6.7787 C   0  0  2  0  0  0  0  0  0  0  0  0
   29.2142   14.6429    7.2114 N   0  0  0  0  0  0  0  0  0  0  0  0
   25.5941    7.7049   11.2500 O   0  0  0  0  0  0  0  0  0  0  0  0
   27.0489   15.9567    7.1357 C   0  0  2  0  0  0  0  0  0  0  0  0
   29.2672    5.5071   11.0995 N   0  0  0  0  0  0  0  0  0  0  0  0
   25.5738   15.9107    6.7071 C   0  0  2  0  0  0  0  0  0  0  0  0
   24.8032   14.6973    7.3805 C   0  0  2  0  0  0  0  0  0  0  0  0
   25.5674   13.4151    7.0455 O   0  0  0  0  0  0  0  0  0  0  0  0
   23.3253   14.6242    6.8990 C   0  0  0  0  0  0  0  0  0  0  0  0
   22.3943   14.3757    7.9409 N   0  0  0  0  0  0  0  0  0  0  0  0
   26.5425   10.4023   11.7971 C   0  0  2  0  0  0  0  0  0  0  0  0
   26.8497    9.2337   12.6729 N   0  0  0  0  0  0  0  0  0  0  0  0
   27.1030   10.0527   10.3342 C   0  0  0  0  0  0  0  0  0  0  0  0
   26.7977   11.2294    9.3339 C   0  0  2  0  0  0  0  0  0  0  0  0
   27.3243   10.9296    7.9943 N   0  0  0  0  0  0  0  0  0  0  0  0
   27.4522   12.5345    9.8291 C   0  0  2  0  0  0  0  0  0  0  0  0
   26.9236   12.9062   11.2732 C   0  0  2  0  0  0  0  0  0  0  0  0
   27.5989   14.1636   11.6503 O   0  0  0  0  0  0  0  0  0  0  0  0
   27.3065   11.7150   12.2910 C   0  0  1  0  0  0  0  0  0  0  0  0
   26.8404   12.0641   13.5561 O   0  0  0  0  0  0  0  0  0  0  0  0
   27.2831   15.3567   11.2764 C   0  0  1  0  0  0  0  0  0  0  0  0
   25.7697   15.7128   11.3621 C   0  0  2  0  0  0  0  0  0  0  0  0
   25.1817   15.4009   10.1386 O   0  0  0  0  0  0  0  0  0  0  0  0
   25.8972   17.1678   11.5484 C   0  0  1  0  0  0  0  0  0  0  0  0
   27.1120   17.4325   12.4906 C   0  0  2  0  0  0  0  0  0  0  0  0
   27.9684   16.4304   11.9997 O   0  0  0  0  0  0  0  0  0  0  0  0
   26.8611   17.4771   13.9986 C   0  0  0  0  0  0  0  0  0  0  0  0
   26.6366   16.1396   14.4027 O   0  0  0  0  0  0  0  0  0  0  0  0
   24.9765   17.9206    9.4016 C   0  0  2  0  0  0  0  0  0  0  0  0
   26.0840   17.7553   10.1824 O   0  0  0  0  0  0  0  0  0  0  0  0
   25.3207   18.4395    8.0366 C   0  0  1  0  0  0  0  0  0  0  0  0
   21.8513   20.1121   11.4825 N   0  0  0  0  0  0  0  0  0  0  0  0
   25.9358    5.5733   13.0597 O   0  0  0  0  0  0  0  0  0  0  0  0
   23.9946   18.6547    7.2088 C   0  0  2  0  0  0  0  0  0  0  0  0
   22.9696   19.6183    7.9015 C   0  0  1  0  0  0  0  0  0  0  0  0
   22.6467   19.0935    9.2075 C   0  0  1  0  0  0  0  0  0  0  0  0
   23.9065   18.8769   10.0244 O   0  0  0  0  0  0  0  0  0  0  0  0
   21.6402   20.0650    9.9665 C   0  0  0  0  0  0  0  0  0  0  0  0
   25.9756   19.6829    8.1438 N   0  0  0  0  0  0  0  0  0  0  0  0
   27.5721   16.8156    6.5928 O   0  0  0  0  0  0  0  0  0  0  0  0
   28.0065    6.5068   13.0794 C   0  0  0  0  0  0  0  0  0  0  0  0
   23.4666   20.6455    8.0261 O   0  0  0  0  0  0  0  0  0  0  0  0
   23.4707   17.6364    7.1008 O   0  0  0  0  0  0  0  0  0  0  0  0
   26.2847    7.9077   12.2588 C   0  0  0  0  0  0  0  0  0  0  0  0
   28.1396    5.9981   11.8068 C   0  0  0  0  0  0  0  0  0  0  0  0
   26.7136    6.7449   13.2958 C   0  0  1  0  0  0  0  0  0  0  0  0
   25.4849   15.7655    5.3113 F   0  0  0  0  0  0  0  0  0  0  0  0
  1  2  1  1  0  0  0
  1 10  1  0  0  0  0
  1  3  1  0  0  0  0
  3  4  1  1  0  0  0
  3  6  1  0  0  0  0
  5 46  2  0  0  0  0
  6 42  1  6  0  0  0
  6  8  1  0  0  0  0
  7 47  1  0  0  0  0
  8  9  1  0  0  0  0
  8 49  1  6  0  0  0
  9 10  1  0  0  0  0
  9 11  1  6  0  0  0
 11 12  1  0  0  0  0
 13 14  1  1  0  0  0
 13 15  1  0  0  0  0
 13 21  1  0  0  0  0
 14 46  1  0  0  0  0
 15 16  1  0  0  0  0
 16 17  1  6  0  0  0
 16 18  1  0  0  0  0
 18  2  1  6  0  0  0
 18 19  1  0  0  0  0
 19 20  1  1  0  0  0
 19 21  1  0  0  0  0
 21 22  1  1  0  0  0
 23 20  1  1  0  0  0
 23 24  1  0  0  0  0
 23 28  1  0  0  0  0
 24 25  1  6  0  0  0
 24 26  1  0  0  0  0
 26 27  1  0  0  0  0
 26 32  1  6  0  0  0
 27 28  1  0  0  0  0
 27 29  1  1  0  0  0
 29 30  1  0  0  0  0
 31 32  1  1  0  0  0
 31 33  1  0  0  0  0
 31 39  1  0  0  0  0
 33 36  1  0  0  0  0
 33 41  1  1  0  0  0
 34 40  1  0  0  0  0
 35 48  1  0  0  0  0
 36 37  1  0  0  0  0
 36 45  1  1  0  0  0
 37 38  1  0  0  0  0
 37 44  1  1  0  0  0
 38 39  1  0  0  0  0
 38 40  1  1  0  0  0
 43 47  1  0  0  0  0
 46 48  1  0  0  0  0
 48 43  1  6  0  0  0
M  END
>  <CHROM.1>
-134.67904874,-37.37594969,-136.34608826,-58.52853231,79.91111482,46.33144286
79.44765243,73.25265684,-176.58420812,-146.17072515,-175.86250717,54.65443920
-13.79387094,25.96406452,14.28365859,9.89878602,-0.07822289,1.31183873,-1.78755973

>  <Name>
ligand

>  <RI>
0

>  <Rbt.Current_Directory>
/home/itssahil/PROJECTS/Mol_Feturizer/New_Systems/rnas/4PDQ

>  <Rbt.Executable>
rbdock ($Id: //depot/dev/client3/rdock/2013.1/src/exe/rbdock.cxx#4 $)

>  <Rbt.Library>
libRbt.so (2013.1, Build901 2013/11/27)

>  <Rbt.Parameter_File>
/export/apps/rDock/src/rDock_2013.1_src/data/scripts/dock_solv.prm

>  <Rbt.Receptor>
prm/blind_docking_60.prm

>  <SCORE>
10.3534

>  <SCORE.INTER>
4.08696

>  <SCORE.INTER.CONST>
1

>  <SCORE.INTER.POLAR>
0

>  <SCORE.INTER.ROT>
13

>  <SCORE.INTER.SOLV>
31.555

>  <SCORE.INTER.VDW>
-20.0604

>  <SCORE.INTER.norm>
0.0834074

>  <SCORE.INTRA>
2.72572

>  <SCORE.INTRA.DIHEDRAL>
-12.3049

>  <SCORE.INTRA.DIHEDRAL.0>
34.5115

>  <SCORE.INTRA.POLAR>
0

>  <SCORE.INTRA.POLAR.0>
0

>  <SCORE.INTRA.REPUL>
0

>  <SCORE.INTRA.REPUL.0>
0

>  <SCORE.INTRA.SOLV>
2.41475

>  <SCORE.INTRA.SOLV.lig_0>
-122.812

>  <SCORE.INTRA.VDW>
7.67079

>  <SCORE.INTRA.VDW.0>
-7.46208

>  <SCORE.INTRA.norm>
0.055627

>  <SCORE.RESTR>
3.54074

>  <SCORE.RESTR.CAVITY>
3.54074

>  <SCORE.RESTR.norm>
0.07226

>  <SCORE.SYSTEM>
0

>  <SCORE.SYSTEM.CONST>
0

>  <SCORE.SYSTEM.DIHEDRAL>
0

>  <SCORE.SYSTEM.SOLV>
0

>  <SCORE.SYSTEM.norm>
0

>  <SCORE.heavy>
49

>  <SCORE.norm>
0.211294

>  <RMSD>
10.878

$$$$
ligand
 OpenBabel11021811513D
libRbt.so/2013.1/901 2013/11/27
 49 52  0  0  0  0  0  0  0  0999 V2000
   24.9550   18.8325    7.8124 C   0  0  2  0  0  0  0  0  0  0  0  0
   24.1875   17.8891    8.5002 O   0  0  0  0  0  0  0  0  0  0  0  0
   24.0975   19.4766    6.6605 C   0  0  2  0  0  0  0  0  0  0  0  0
   22.8658   20.1336    7.2636 N   0  0  0  0  0  0  0  0  0  0  0  0
   28.1884   18.0751   13.9311 O   0  0  0  0  0  0  0  0  0  0  0  0
   23.7104   18.4058    5.6138 C   0  0  2  0  0  0  0  0  0  0  0  0
   25.4120   18.0528   18.1376 N   0  0  0  0  0  0  0  0  0  0  0  0
   24.9696   17.7428    5.0337 C   0  0  2  0  0  0  0  0  0  0  0  0
   25.8624   17.0826    6.1680 C   0  0  2  0  0  0  0  0  0  0  0  0
   26.1747   18.1632    7.2048 O   0  0  0  0  0  0  0  0  0  0  0  0
   27.1626   16.4621    5.5798 C   0  0  0  0  0  0  0  0  0  0  0  0
   26.9363   15.3232    4.7638 N   0  0  0  0  0  0  0  0  0  0  0  0
   26.3032   16.7909   12.1224 C   0  0  2  0  0  0  0  0  0  0  0  0
   26.5289   16.3373   13.5261 N   0  0  0  0  0  0  0  0  0  0  0  0
   25.1273   17.8826   12.1651 C   0  0  0  0  0  0  0  0  0  0  0  0
   24.8394   18.4358   10.7197 C   0  0  2  0  0  0  0  0  0  0  0  0
   23.7496   19.4226   10.7427 N   0  0  0  0  0  0  0  0  0  0  0  0
   24.4289   17.2850    9.7794 C   0  0  2  0  0  0  0  0  0  0  0  0
   25.5666   16.1874    9.7178 C   0  0  2  0  0  0  0  0  0  0  0  0
   25.0838   15.1422    8.7938 O   0  0  0  0  0  0  0  0  0  0  0  0
   25.7962   15.5908   11.1986 C   0  0  1  0  0  0  0  0  0  0  0  0
   26.7941   14.6224   11.1219 O   0  0  0  0  0  0  0  0  0  0  0  0
   25.3100   13.8749    8.8689 C   0  0  1  0  0  0  0  0  0  0  0  0
   24.5824   12.9952    7.8100 C   0  0  2  0  0  0  0  0  0  0  0  0
   23.3605   12.5950    8.3456 O   0  0  0  0  0  0  0  0  0  0  0  0
   25.5425   11.8802    7.7544 C   0  0  1  0  0  0  0  0  0  0  0  0
   26.9824   12.4739    7.8427 C   0  0  2  0  0  0  0  0  0  0  0  0
   26.7215   13.4945    8.7748 O   0  0  0  0  0  0  0  0  0  0  0  0
   27.6853   12.8626    6.5412 C   0  0  0  0  0  0  0  0  0  0  0  0
   29.0180   13.1846    6.8915 O   0  0  0  0  0  0  0  0  0  0  0  0
   26.0336   11.0167    9.9986 C   0  0  2  0  0  0  0  0  0  0  0  0
   25.2145   10.9804    8.9072 O   0  0  0  0  0  0  0  0  0  0  0  0
   26.3895    9.6420   10.4829 C   0  0  1  0  0  0  0  0  0  0  0  0
   26.1020   12.4573   14.9943 N   0  0  0  0  0  0  0  0  0  0  0  0
   28.9675   15.9718   16.0338 O   0  0  0  0  0  0  0  0  0  0  0  0
   27.2923    9.7589   11.7718 C   0  0  2  0  0  0  0  0  0  0  0  0
   26.6286   10.5769   12.9333 C   0  0  1  0  0  0  0  0  0  0  0  0
   26.3045   11.8974   12.4465 C   0  0  1  0  0  0  0  0  0  0  0  0
   25.4361   11.8127   11.2056 O   0  0  0  0  0  0  0  0  0  0  0  0
   25.5869   12.7507   13.5823 C   0  0  0  0  0  0  0  0  0  0  0  0
   25.2208    8.9351   10.8306 N   0  0  0  0  0  0  0  0  0  0  0  0
   23.1245   18.9049    4.7689 O   0  0  0  0  0  0  0  0  0  0  0  0
   27.4201   17.5124   16.6598 C   0  0  0  0  0  0  0  0  0  0  0  0
   25.6586   10.0458   13.2410 O   0  0  0  0  0  0  0  0  0  0  0  0
   28.2570   10.3156   11.4841 O   0  0  0  0  0  0  0  0  0  0  0  0
   27.5373   17.1000   14.3324 C   0  0  0  0  0  0  0  0  0  0  0  0
   26.1099   17.4244   17.0742 C   0  0  0  0  0  0  0  0  0  0  0  0
   27.6589   16.4995   15.8277 C   0  0  1  0  0  0  0  0  0  0  0  0
   25.7505   18.7016    4.3642 F   0  0  0  0  0  0  0  0  0  0  0  0
  1  2  1  6  0  0  0
  1 10  1  0  0  0  0
  1  3  1  0  0  0  0
  3  4  1  1  0  0  0
  3  6  1  0  0  0  0
  5 46  2  0  0  0  0
  6 42  1  6  0  0  0
  6  8  1  0  0  0  0
  7 47  1  0  0  0  0
  8  9  1  0  0  0  0
  8 49  1  1  0  0  0
  9 10  1  0  0  0  0
  9 11  1  6  0  0  0
 11 12  1  0  0  0  0
 13 14  1  1  0  0  0
 13 15  1  0  0  0  0
 13 21  1  0  0  0  0
 14 46  1  0  0  0  0
 15 16  1  0  0  0  0
 16 17  1  1  0  0  0
 16 18  1  0  0  0  0
 18  2  1  6  0  0  0
 18 19  1  0  0  0  0
 19 20  1  6  0  0  0
 19 21  1  0  0  0  0
 21 22  1  6  0  0  0
 23 20  1  6  0  0  0
 23 24  1  0  0  0  0
 23 28  1  0  0  0  0
 24 25  1  1  0  0  0
 24 26  1  0  0  0  0
 26 27  1  0  0  0  0
 26 32  1  1  0  0  0
 27 28  1  0  0  0  0
 27 29  1  6  0  0  0
 29 30  1  0  0  0  0
 31 32  1  6  0  0  0
 31 33  1  0  0  0  0
 31 39  1  0  0  0  0
 33 36  1  0  0  0  0
 33 41  1  1  0  0  0
 34 40  1  0  0  0  0
 35 48  1  0  0  0  0
 36 37  1  0  0  0  0
 36 45  1  6  0  0  0
 37 38  1  0  0  0  0
 37 44  1  6  0  0  0
 38 39  1  0  0  0  0
 38 40  1  1  0  0  0
 43 47  1  0  0  0  0
 46 48  1  0  0  0  0
 48 43  1  1  0  0  0
M  END
>  <CHROM.1>
-164.36477278,45.52280318,-68.31752875,-90.00241382,-146.20012124,175.62006625
-104.24661871,-171.90244878,-134.16323754,34.85371625,165.36696340,-141.54005421
-64.93031099,25.90200093,15.08084141,10.16601465,2.85165837,1.36918499,-2.38865742

>  <Name>
ligand

>  <RI>
0

>  <Rbt.Current_Directory>
/home/itssahil/PROJECTS/Mol_Feturizer/New_Systems/rnas/4PDQ

>  <Rbt.Executable>
rbdock ($Id: //depot/dev/client3/rdock/2013.1/src/exe/rbdock.cxx#4 $)

>  <Rbt.Library>
libRbt.so (2013.1, Build901 2013/11/27)

>  <Rbt.Parameter_File>
/export/apps/rDock/src/rDock_2013.1_src/data/scripts/dock_solv.prm

>  <Rbt.Receptor>
prm/blind_docking_40.prm

>  <SCORE>
-1.77971

>  <SCORE.INTER>
-2.82698

>  <SCORE.INTER.CONST>
1

>  <SCORE.INTER.POLAR>
0

>  <SCORE.INTER.ROT>
13

>  <SCORE.INTER.SOLV>
29.0855

>  <SCORE.INTER.VDW>
-23.8465

>  <SCORE.INTER.norm>
-0.0576935

>  <SCORE.INTRA>
-0.312605

>  <SCORE.INTRA.DIHEDRAL>
-5.74756

>  <SCORE.INTRA.DIHEDRAL.0>
34.5115

>  <SCORE.INTRA.POLAR>
0

>  <SCORE.INTRA.POLAR.0>
0

>  <SCORE.INTRA.REPUL>
0

>  <SCORE.INTRA.REPUL.0>
0

>  <SCORE.INTRA.SOLV>
1.12407

>  <SCORE.INTRA.SOLV.lig_0>
-122.812

>  <SCORE.INTRA.VDW>
1.99914

>  <SCORE.INTRA.VDW.0>
-7.46208

>  <SCORE.INTRA.norm>
-0.0063797

>  <SCORE.RESTR>
1.35988

>  <SCORE.RESTR.CAVITY>
1.35988

>  <SCORE.RESTR.norm>
0.0277526

>  <SCORE.SYSTEM>
0

>  <SCORE.SYSTEM.CONST>
0

>  <SCORE.SYSTEM.DIHEDRAL>
0

>  <SCORE.SYSTEM.SOLV>
0

>  <SCORE.SYSTEM.norm>
0

>  <SCORE.heavy>
49

>  <SCORE.norm>
-0.0363206

>  <RMSD>
10.898

$$$$
ligand
 OpenBabel11021811513D
libRbt.so/2013.1/901 2013/11/27
 49 52  0  0  0  0  0  0  0  0999 V2000
   24.9684   13.5878   12.0979 C   0  0  2  0  0  0  0  0  0  0  0  0
   25.9237   12.9631   11.2922 O   0  0  0  0  0  0  0  0  0  0  0  0
   23.7967   14.1381   11.2027 C   0  0  2  0  0  0  0  0  0  0  0  0
   23.1705   12.9835   10.4364 N   0  0  0  0  0  0  0  0  0  0  0  0
   26.1651    7.2360   11.3064 O   0  0  0  0  0  0  0  0  0  0  0  0
   24.3197   15.2336   10.2445 C   0  0  2  0  0  0  0  0  0  0  0  0
   30.1249    3.2683   11.7907 N   0  0  0  0  0  0  0  0  0  0  0  0
   24.9652   16.3789   11.0402 C   0  0  2  0  0  0  0  0  0  0  0  0
   26.1522   15.8612   11.9581 C   0  0  2  0  0  0  0  0  0  0  0  0
   25.6019   14.7455   12.8484 O   0  0  0  0  0  0  0  0  0  0  0  0
   26.7642   17.0165   12.8023 C   0  0  0  0  0  0  0  0  0  0  0  0
   27.1506   18.1455   12.0342 N   0  0  0  0  0  0  0  0  0  0  0  0
   28.2170    9.2900   11.5203 C   0  0  2  0  0  0  0  0  0  0  0  0
   28.5125    7.8286   11.5832 N   0  0  0  0  0  0  0  0  0  0  0  0
   27.0276    9.5736   12.5602 C   0  0  0  0  0  0  0  0  0  0  0  0
   26.6665   11.1058   12.5763 C   0  0  2  0  0  0  0  0  0  0  0  0
   25.5639   11.3755   13.5109 N   0  0  0  0  0  0  0  0  0  0  0  0
   26.2317   11.5666   11.1707 C   0  0  2  0  0  0  0  0  0  0  0  0
   27.3820   11.2968   10.1187 C   0  0  2  0  0  0  0  0  0  0  0  0
   26.8741   11.7757    8.8179 O   0  0  0  0  0  0  0  0  0  0  0  0
   27.6871    9.7136   10.0744 C   0  0  1  0  0  0  0  0  0  0  0  0
   28.6952    9.4962    9.1384 O   0  0  0  0  0  0  0  0  0  0  0  0
   26.9352   12.9779    8.3556 C   0  0  1  0  0  0  0  0  0  0  0  0
   28.3651   13.5097    8.0441 C   0  0  2  0  0  0  0  0  0  0  0  0
   28.8471   14.1488    9.1839 O   0  0  0  0  0  0  0  0  0  0  0  0
   28.0150   14.4737    6.9876 C   0  0  1  0  0  0  0  0  0  0  0  0
   26.8944   13.8420    6.1052 C   0  0  2  0  0  0  0  0  0  0  0  0
   26.1686   13.2056    7.1283 O   0  0  0  0  0  0  0  0  0  0  0  0
   27.3125   12.9986    4.8999 C   0  0  0  0  0  0  0  0  0  0  0  0
   26.1770   12.9188    4.0591 O   0  0  0  0  0  0  0  0  0  0  0  0
   26.3775   16.2732    7.3092 C   0  0  2  0  0  0  0  0  0  0  0  0
   27.5691   15.7232    7.6848 O   0  0  0  0  0  0  0  0  0  0  0  0
   26.5016   17.0846    6.0532 C   0  0  1  0  0  0  0  0  0  0  0  0
   24.6729   19.9500    9.5393 N   0  0  0  0  0  0  0  0  0  0  0  0
   28.3843    4.9584   10.2832 O   0  0  0  0  0  0  0  0  0  0  0  0
   25.1038   17.7302    5.7072 C   0  0  2  0  0  0  0  0  0  0  0  0
   24.5184   18.6187    6.8591 C   0  0  1  0  0  0  0  0  0  0  0  0
   24.3994   17.8144    8.0526 C   0  0  1  0  0  0  0  0  0  0  0  0
   25.7315   17.1813    8.4071 O   0  0  0  0  0  0  0  0  0  0  0  0
   23.8487   18.6893    9.2628 C   0  0  0  0  0  0  0  0  0  0  0  0
   27.4300   18.1279    6.2423 N   0  0  0  0  0  0  0  0  0  0  0  0
   23.4445   15.6449    9.6353 O   0  0  0  0  0  0  0  0  0  0  0  0
   28.7418    5.2907   12.5017 C   0  0  0  0  0  0  0  0  0  0  0  0
   25.2523   19.4778    7.0614 O   0  0  0  0  0  0  0  0  0  0  0  0
   24.3504   16.8792    5.5301 O   0  0  0  0  0  0  0  0  0  0  0  0
   27.3460    6.8940   11.4616 C   0  0  0  0  0  0  0  0  0  0  0  0
   29.1934    3.9921   12.5788 C   0  0  0  0  0  0  0  0  0  0  0  0
   27.8269    5.3530   11.5350 C   0  0  1  0  0  0  0  0  0  0  0  0
   24.0050   16.9876   11.8678 F   0  0  0  0  0  0  0  0  0  0  0  0
  1  2  1  6  0  0  0
  1 10  1  0  0  0  0
  1  3  1  0  0  0  0
  3  4  1  6  0  0  0
  3  6  1  0  0  0  0
  5 46  2  0  0  0  0
  6 42  1  1  0  0  0
  6  8  1  0  0  0  0
  7 47  1  0  0  0  0
  8  9  1  0  0  0  0
  8 49  1  1  0  0  0
  9 10  1  0  0  0  0
  9 11  1  1  0  0  0
 11 12  1  0  0  0  0
 13 14  1  6  0  0  0
 13 15  1  0  0  0  0
 13 21  1  0  0  0  0
 14 46  1  0  0  0  0
 15 16  1  0  0  0  0
 16 17  1  1  0  0  0
 16 18  1  0  0  0  0
 18  2  1  1  0  0  0
 18 19  1  0  0  0  0
 19 20  1  6  0  0  0
 19 21  1  0  0  0  0
 21 22  1  6  0  0  0
 23 20  1  6  0  0  0
 23 24  1  0  0  0  0
 23 28  1  0  0  0  0
 24 25  1  1  0  0  0
 24 26  1  0  0  0  0
 26 27  1  0  0  0  0
 26 32  1  1  0  0  0
 27 28  1  0  0  0  0
 27 29  1  6  0  0  0
 29 30  1  0  0  0  0
 31 32  1  1  0  0  0
 31 33  1  0  0  0  0
 31 39  1  0  0  0  0
 33 36  1  0  0  0  0
 33 41  1  1  0  0  0
 34 40  1  0  0  0  0
 35 48  1  0  0  0  0
 36 37  1  0  0  0  0
 36 45  1  1  0  0  0
 37 38  1  0  0  0  0
 37 44  1  1  0  0  0
 38 39  1  0  0  0  0
 38 40  1  1  0  0  0
 43 47  1  0  0  0  0
 46 48  1  0  0  0  0
 48 43  1  1  0  0  0
M  END
>  <CHROM.1>
-109.10073684,-60.09094038,-52.64316229,50.16930074,85.88928094,66.22993969
-129.25777906,-161.65026106,-80.22965366,-54.69054664,79.07729104,-59.56910568
101.10082504,26.41849727,13.20286819,9.62519787,0.87430433,-1.18444221,2.18287414

>  <Name>
ligand

>  <RI>
0

>  <Rbt.Current_Directory>
/home/itssahil/PROJECTS/Mol_Feturizer/New_Systems/rnas/4PDQ

>  <Rbt.Executable>
rbdock ($Id: //depot/dev/client3/rdock/2013.1/src/exe/rbdock.cxx#4 $)

>  <Rbt.Library>
libRbt.so (2013.1, Build901 2013/11/27)

>  <Rbt.Parameter_File>
/export/apps/rDock/src/rDock_2013.1_src/data/scripts/dock_solv.prm

>  <Rbt.Receptor>
prm/blind_docking_100.prm

>  <SCORE>
7.4592

>  <SCORE.INTER>
0.337331

>  <SCORE.INTER.CONST>
1

>  <SCORE.INTER.POLAR>
0

>  <SCORE.INTER.ROT>
13

>  <SCORE.INTER.SOLV>
26.876

>  <SCORE.INTER.VDW>
-21.0004

>  <SCORE.INTER.norm>
0.0068843

>  <SCORE.INTRA>
1.49039

>  <SCORE.INTRA.DIHEDRAL>
-12.2703

>  <SCORE.INTRA.DIHEDRAL.0>
34.5115

>  <SCORE.INTRA.POLAR>
0

>  <SCORE.INTRA.POLAR.0>
0

>  <SCORE.INTRA.REPUL>
0

>  <SCORE.INTRA.REPUL.0>
0

>  <SCORE.INTRA.SOLV>
4.29082

>  <SCORE.INTRA.SOLV.lig_0>
-122.812

>  <SCORE.INTRA.VDW>
5.48015

>  <SCORE.INTRA.VDW.0>
-7.46208

>  <SCORE.INTRA.norm>
0.0304162

>  <SCORE.RESTR>
5.63147

>  <SCORE.RESTR.CAVITY>
5.63147

>  <SCORE.RESTR.norm>
0.114928

>  <SCORE.SYSTEM>
0

>  <SCORE.SYSTEM.CONST>
0

>  <SCORE.SYSTEM.DIHEDRAL>
0

>  <SCORE.SYSTEM.SOLV>
0

>  <SCORE.SYSTEM.norm>
0

>  <SCORE.heavy>
49

>  <SCORE.norm>
0.152229

>  <RMSD>
10.908

$$$$
ligand
 OpenBabel11021811513D
libRbt.so/2013.1/901 2013/11/27
 49 52  0  0  0  0  0  0  0  0999 V2000
   28.2472   11.8453    7.8089 C   0  0  2  0  0  0  0  0  0  0  0  0
   27.9497   11.3063    9.0630 O   0  0  0  0  0  0  0  0  0  0  0  0
   29.5828   12.6740    7.8905 C   0  0  2  0  0  0  0  0  0  0  0  0
   30.7074   11.7624    8.3559 N   0  0  0  0  0  0  0  0  0  0  0  0
   26.1727    6.0128   12.8444 O   0  0  0  0  0  0  0  0  0  0  0  0
   29.4088   13.8842    8.8376 C   0  0  2  0  0  0  0  0  0  0  0  0
   22.1143    2.2444   12.2244 N   0  0  0  0  0  0  0  0  0  0  0  0
   28.2550   14.7790    8.3583 C   0  0  2  0  0  0  0  0  0  0  0  0
   26.8892   13.9761    8.2615 C   0  0  2  0  0  0  0  0  0  0  0  0
   27.1237   12.7624    7.3602 O   0  0  0  0  0  0  0  0  0  0  0  0
   25.7381   14.8741    7.7228 C   0  0  0  0  0  0  0  0  0  0  0  0
   25.4705   16.0096    8.5309 N   0  0  0  0  0  0  0  0  0  0  0  0
   25.8037    7.8882   10.6487 C   0  0  2  0  0  0  0  0  0  0  0  0
   24.6902    7.0869   11.2361 N   0  0  0  0  0  0  0  0  0  0  0  0
   25.8903    9.2553   11.4853 C   0  0  0  0  0  0  0  0  0  0  0  0
   27.0626   10.1562   10.9447 C   0  0  2  0  0  0  0  0  0  0  0  0
   27.1394   11.4211   11.6903 N   0  0  0  0  0  0  0  0  0  0  0  0
   26.8390   10.4865    9.4554 C   0  0  2  0  0  0  0  0  0  0  0  0
   26.7446    9.1580    8.6015 C   0  0  2  0  0  0  0  0  0  0  0  0
   26.5396    9.5795    7.2015 O   0  0  0  0  0  0  0  0  0  0  0  0
   25.4969    8.2846    9.1323 C   0  0  1  0  0  0  0  0  0  0  0  0
   25.4260    7.1252    8.3641 O   0  0  0  0  0  0  0  0  0  0  0  0
   26.5476    8.8262    6.1550 C   0  0  1  0  0  0  0  0  0  0  0  0
   26.5668    9.5705    4.7874 C   0  0  2  0  0  0  0  0  0  0  0  0
   25.2487    9.7623    4.3804 O   0  0  0  0  0  0  0  0  0  0  0  0
   27.2383    8.5353    3.9840 C   0  0  1  0  0  0  0  0  0  0  0  0
   28.3516    7.8848    4.8620 C   0  0  2  0  0  0  0  0  0  0  0  0
   27.6614    7.8772    6.0875 O   0  0  0  0  0  0  0  0  0  0  0  0
   29.7484    8.5073    4.8366 C   0  0  0  0  0  0  0  0  0  0  0  0
   30.1726    8.4739    3.4869 O   0  0  0  0  0  0  0  0  0  0  0  0
   26.5718    6.3988    2.9768 C   0  0  2  0  0  0  0  0  0  0  0  0
   26.1763    7.5593    3.5771 O   0  0  0  0  0  0  0  0  0  0  0  0
   27.4346    6.6506    1.7754 C   0  0  1  0  0  0  0  0  0  0  0  0
   24.7545    1.9076    1.0309 N   0  0  0  0  0  0  0  0  0  0  0  0
   22.6070    6.2505   12.8911 O   0  0  0  0  0  0  0  0  0  0  0  0
   27.8113    5.2732    1.1039 C   0  0  2  0  0  0  0  0  0  0  0  0
   26.5670    4.4116    0.6941 C   0  0  1  0  0  0  0  0  0  0  0  0
   25.7583    4.1745    1.8669 C   0  0  1  0  0  0  0  0  0  0  0  0
   25.3825    5.4849    2.5323 O   0  0  0  0  0  0  0  0  0  0  0  0
   24.4579    3.3384    1.4888 C   0  0  0  0  0  0  0  0  0  0  0  0
   26.7303    7.4206    0.8281 N   0  0  0  0  0  0  0  0  0  0  0  0
   30.3769   14.4916    8.8481 O   0  0  0  0  0  0  0  0  0  0  0  0
   23.5422    4.3525   12.0648 C   0  0  0  0  0  0  0  0  0  0  0  0
   25.9500    5.0076   -0.0686 O   0  0  0  0  0  0  0  0  0  0  0  0
   28.4062    4.6529    1.8684 O   0  0  0  0  0  0  0  0  0  0  0  0
   25.0409    6.1598   12.3614 C   0  0  0  0  0  0  0  0  0  0  0  0
   22.6222    3.5030   12.6376 C   0  0  0  0  0  0  0  0  0  0  0  0
   23.7331    5.3758   12.8965 C   0  0  1  0  0  0  0  0  0  0  0  0
   28.5489   15.2986    7.0851 F   0  0  0  0  0  0  0  0  0  0  0  0
  1  2  1  1  0  0  0
  1 10  1  0  0  0  0
  1  3  1  0  0  0  0
  3  4  1  1  0  0  0
  3  6  1  0  0  0  0
  5 46  2  0  0  0  0
  6 42  1  6  0  0  0
  6  8  1  0  0  0  0
  7 47  1  0  0  0  0
  8  9  1  0  0  0  0
  8 49  1  6  0  0  0
  9 10  1  0  0  0  0
  9 11  1  6  0  0  0
 11 12  1  0  0  0  0
 13 14  1  1  0  0  0
 13 15  1  0  0  0  0
 13 21  1  0  0  0  0
 14 46  1  0  0  0  0
 15 16  1  0  0  0  0
 16 17  1  1  0  0  0
 16 18  1  0  0  0  0
 18  2  1  6  0  0  0
 18 19  1  0  0  0  0
 19 20  1  6  0  0  0
 19 21  1  0  0  0  0
 21 22  1  6  0  0  0
 23 20  1  1  0  0  0
 23 24  1  0  0  0  0
 23 28  1  0  0  0  0
 24 25  1  6  0  0  0
 24 26  1  0  0  0  0
 26 27  1  0  0  0  0
 26 32  1  1  0  0  0
 27 28  1  0  0  0  0
 27 29  1  1  0  0  0
 29 30  1  0  0  0  0
 31 32  1  6  0  0  0
 31 33  1  0  0  0  0
 31 39  1  0  0  0  0
 33 36  1  0  0  0  0
 33 41  1  6  0  0  0
 34 40  1  0  0  0  0
 35 48  1  0  0  0  0
 36 37  1  0  0  0  0
 36 45  1  1  0  0  0
 37 38  1  0  0  0  0
 37 44  1  6  0  0  0
 38 39  1  0  0  0  0
 38 40  1  6  0  0  0
 43 47  1  0  0  0  0
 46 48  1  0  0  0  0
 48 43  1  6  0  0  0
M  END
>  <CHROM.1>
-179.89649453,178.11454153,-60.05666669,-89.34863178,172.23286407,-169.10182067
-171.04676207,-58.23394460,-54.52894883,66.65188473,-176.21042386,-73.13767848
140.81551109,26.61151766,8.59774279,6.97200696,-1.42345911,-1.10669812,-2.12883082

>  <Name>
ligand

>  <RI>
0

>  <Rbt.Current_Directory>
/home/itssahil/PROJECTS/Mol_Feturizer/New_Systems/rnas/4PDQ

>  <Rbt.Executable>
rbdock ($Id: //depot/dev/client3/rdock/2013.1/src/exe/rbdock.cxx#4 $)

>  <Rbt.Library>
libRbt.so (2013.1, Build901 2013/11/27)

>  <Rbt.Parameter_File>
/export/apps/rDock/src/rDock_2013.1_src/data/scripts/dock_solv.prm

>  <Rbt.Receptor>
prm/pocket_docking_8.prm

>  <SCORE>
-13.3092

>  <SCORE.INTER>
1.06463

>  <SCORE.INTER.CONST>
1

>  <SCORE.INTER.POLAR>
0

>  <SCORE.INTER.ROT>
13

>  <SCORE.INTER.SOLV>
15.3141

>  <SCORE.INTER.VDW>
-16.6616

>  <SCORE.INTER.norm>
0.021727

>  <SCORE.INTRA>
-14.3738

>  <SCORE.INTRA.DIHEDRAL>
-30.3679

>  <SCORE.INTRA.DIHEDRAL.0>
34.5115

>  <SCORE.INTRA.POLAR>
0

>  <SCORE.INTRA.POLAR.0>
0

>  <SCORE.INTRA.REPUL>
0

>  <SCORE.INTRA.REPUL.0>
0

>  <SCORE.INTRA.SOLV>
-4.16517

>  <SCORE.INTRA.SOLV.lig_0>
-122.812

>  <SCORE.INTRA.VDW>
2.89276

>  <SCORE.INTRA.VDW.0>
-7.46208

>  <SCORE.INTRA.norm>
-0.293343

>  <SCORE.RESTR>
0

>  <SCORE.RESTR.CAVITY>
0

>  <SCORE.RESTR.norm>
0

>  <SCORE.SYSTEM>
0

>  <SCORE.SYSTEM.CONST>
0

>  <SCORE.SYSTEM.DIHEDRAL>
0

>  <SCORE.SYSTEM.SOLV>
0

>  <SCORE.SYSTEM.norm>
0

>  <SCORE.heavy>
49

>  <SCORE.norm>
-0.271616

>  <RMSD>
10.911

$$$$
ligand
 OpenBabel11021811513D
libRbt.so/2013.1/901 2013/11/27
 49 52  0  0  0  0  0  0  0  0999 V2000
   28.6613   11.6876    7.7695 C   0  0  2  0  0  0  0  0  0  0  0  0
   28.2599   11.1801    9.0078 O   0  0  0  0  0  0  0  0  0  0  0  0
   29.8444   12.7057    7.9712 C   0  0  2  0  0  0  0  0  0  0  0  0
   31.0029   11.9948    8.6533 N   0  0  0  0  0  0  0  0  0  0  0  0
   26.1802    6.8941   13.5303 O   0  0  0  0  0  0  0  0  0  0  0  0
   29.3699   13.9273    8.7923 C   0  0  2  0  0  0  0  0  0  0  0  0
   21.6189    4.2478   14.0204 N   0  0  0  0  0  0  0  0  0  0  0  0
   28.1872   14.6165    8.0939 C   0  0  2  0  0  0  0  0  0  0  0  0
   26.9730   13.6187    7.8711 C   0  0  2  0  0  0  0  0  0  0  0  0
   27.5007   12.4049    7.1037 O   0  0  0  0  0  0  0  0  0  0  0  0
   25.8013   14.3082    7.1140 C   0  0  0  0  0  0  0  0  0  0  0  0
   26.1165   14.6723    5.7791 N   0  0  0  0  0  0  0  0  0  0  0  0
   26.5632    7.5789   10.7269 C   0  0  2  0  0  0  0  0  0  0  0  0
   25.5347    6.6057   11.1983 N   0  0  0  0  0  0  0  0  0  0  0  0
   26.1240    9.0249   11.2679 C   0  0  0  0  0  0  0  0  0  0  0  0
   27.1737   10.1150   10.8342 C   0  0  2  0  0  0  0  0  0  0  0  0
   26.7718   11.4481   11.3069 N   0  0  0  0  0  0  0  0  0  0  0  0
   27.2902   10.1625    9.2976 C   0  0  2  0  0  0  0  0  0  0  0  0
   27.7183    8.7490    8.7305 C   0  0  2  0  0  0  0  0  0  0  0  0
   27.8087    8.9010    7.2649 O   0  0  0  0  0  0  0  0  0  0  0  0
   26.5945    7.6640    9.1324 C   0  0  1  0  0  0  0  0  0  0  0  0
   26.9851    6.4301    8.6182 O   0  0  0  0  0  0  0  0  0  0  0  0
   28.6794    8.3626    6.4808 C   0  0  1  0  0  0  0  0  0  0  0  0
   28.8775    6.8269    6.6449 C   0  0  2  0  0  0  0  0  0  0  0  0
   29.8952    6.6184    7.5727 O   0  0  0  0  0  0  0  0  0  0  0  0
   29.3188    6.5153    5.2751 C   0  0  1  0  0  0  0  0  0  0  0  0
   28.4833    7.3850    4.2857 C   0  0  2  0  0  0  0  0  0  0  0  0
   28.4289    8.5635    5.0516 O   0  0  0  0  0  0  0  0  0  0  0  0
   27.1639    6.8170    3.7607 C   0  0  0  0  0  0  0  0  0  0  0  0
   27.4890    5.6125    3.0927 O   0  0  0  0  0  0  0  0  0  0  0  0
   31.5345    6.1945    4.2697 C   0  0  2  0  0  0  0  0  0  0  0  0
   30.7847    6.8227    5.2218 O   0  0  0  0  0  0  0  0  0  0  0  0
   32.9625    6.6549    4.2815 C   0  0  1  0  0  0  0  0  0  0  0  0
   29.6791    5.3423    0.1777 N   0  0  0  0  0  0  0  0  0  0  0  0
   24.4397    4.8463   14.3746 O   0  0  0  0  0  0  0  0  0  0  0  0
   33.7559    5.9287    3.1270 C   0  0  2  0  0  0  0  0  0  0  0  0
   33.1376    6.1491    1.7030 C   0  0  1  0  0  0  0  0  0  0  0  0
   31.7683    5.6902    1.7139 C   0  0  1  0  0  0  0  0  0  0  0  0
   30.9829    6.3740    2.8169 O   0  0  0  0  0  0  0  0  0  0  0  0
   31.0858    5.9357    0.2973 C   0  0  0  0  0  0  0  0  0  0  0  0
   33.0239    8.0434    4.0476 N   0  0  0  0  0  0  0  0  0  0  0  0
   30.2337   14.6693    8.8901 O   0  0  0  0  0  0  0  0  0  0  0  0
   23.1419    5.9342   12.8607 C   0  0  0  0  0  0  0  0  0  0  0  0
   33.1508    7.2737    1.4734 O   0  0  0  0  0  0  0  0  0  0  0  0
   33.7261    4.7966    3.3291 O   0  0  0  0  0  0  0  0  0  0  0  0
   25.4633    6.3552   12.6751 C   0  0  0  0  0  0  0  0  0  0  0  0
   22.1255    5.0082   12.9351 C   0  0  0  0  0  0  0  0  0  0  0  0
   24.2978    5.2929   13.0278 C   0  0  1  0  0  0  0  0  0  0  0  0
   28.5903   15.1032    6.8377 F   0  0  0  0  0  0  0  0  0  0  0  0
  1  2  1  1  0  0  0
  1 10  1  0  0  0  0
  1  3  1  0  0  0  0
  3  4  1  1  0  0  0
  3  6  1  0  0  0  0
  5 46  2  0  0  0  0
  6 42  1  6  0  0  0
  6  8  1  0  0  0  0
  7 47  1  0  0  0  0
  8  9  1  0  0  0  0
  8 49  1  6  0  0  0
  9 10  1  0  0  0  0
  9 11  1  6  0  0  0
 11 12  1  0  0  0  0
 13 14  1  6  0  0  0
 13 15  1  0  0  0  0
 13 21  1  0  0  0  0
 14 46  1  0  0  0  0
 15 16  1  0  0  0  0
 16 17  1  6  0  0  0
 16 18  1  0  0  0  0
 18  2  1  1  0  0  0
 18 19  1  0  0  0  0
 19 20  1  6  0  0  0
 19 21  1  0  0  0  0
 21 22  1  6  0  0  0
 23 20  1  1  0  0  0
 23 24  1  0  0  0  0
 23 28  1  0  0  0  0
 24 25  1  1  0  0  0
 24 26  1  0  0  0  0
 26 27  1  0  0  0  0
 26 32  1  1  0  0  0
 27 28  1  0  0  0  0
 27 29  1  1  0  0  0
 29 30  1  0  0  0  0
 31 32  1  1  0  0  0
 31 33  1  0  0  0  0
 31 39  1  0  0  0  0
 33 36  1  0  0  0  0
 33 41  1  6  0  0  0
 34 40  1  0  0  0  0
 35 48  1  0  0  0  0
 36 37  1  0  0  0  0
 36 45  1  1  0  0  0
 37 38  1  0  0  0  0
 37 44  1  1  0  0  0
 38 39  1  0  0  0  0
 38 40  1  6  0  0  0
 43 47  1  0  0  0  0
 46 48  1  0  0  0  0
 48 43  1  1  0  0  0
M  END
>  <CHROM.1>
-175.12769794,-174.85607755,65.95012352,-67.45141664,142.11497722,50.31278370
156.68617987,-59.40570057,176.69585174,173.86791639,69.34718812,-70.38179625
-13.80237919,28.38818062,8.55445831,7.32841134,-2.93097604,-0.94022174,-3.00518062

>  <Name>
ligand

>  <RI>
0

>  <Rbt.Current_Directory>
/home/itssahil/PROJECTS/Mol_Feturizer/New_Systems/rnas/4PDQ

>  <Rbt.Executable>
rbdock ($Id: //depot/dev/client3/rdock/2013.1/src/exe/rbdock.cxx#4 $)

>  <Rbt.Library>
libRbt.so (2013.1, Build901 2013/11/27)

>  <Rbt.Parameter_File>
/export/apps/rDock/src/rDock_2013.1_src/data/scripts/dock_solv.prm

>  <Rbt.Receptor>
prm/pocket_docking_8.prm

>  <SCORE>
-14.2051

>  <SCORE.INTER>
-3.76448

>  <SCORE.INTER.CONST>
1

>  <SCORE.INTER.POLAR>
0

>  <SCORE.INTER.ROT>
13

>  <SCORE.INTER.SOLV>
16.5831

>  <SCORE.INTER.VDW>
-20.304

>  <SCORE.INTER.norm>
-0.0768261

>  <SCORE.INTRA>
-10.4406

>  <SCORE.INTRA.DIHEDRAL>
-24.2632

>  <SCORE.INTRA.DIHEDRAL.0>
34.5115

>  <SCORE.INTRA.POLAR>
0

>  <SCORE.INTRA.POLAR.0>
0

>  <SCORE.INTRA.REPUL>
0

>  <SCORE.INTRA.REPUL.0>
0

>  <SCORE.INTRA.SOLV>
-1.42863

>  <SCORE.INTRA.SOLV.lig_0>
-122.812

>  <SCORE.INTRA.VDW>
2.4053

>  <SCORE.INTRA.VDW.0>
-7.46208

>  <SCORE.INTRA.norm>
-0.213074

>  <SCORE.RESTR>
0

>  <SCORE.RESTR.CAVITY>
0

>  <SCORE.RESTR.norm>
0

>  <SCORE.SYSTEM>
0

>  <SCORE.SYSTEM.CONST>
0

>  <SCORE.SYSTEM.DIHEDRAL>
0

>  <SCORE.SYSTEM.SOLV>
0

>  <SCORE.SYSTEM.norm>
0

>  <SCORE.heavy>
49

>  <SCORE.norm>
-0.2899

>  <RMSD>
10.937

$$$$
ligand
 OpenBabel11021811513D
libRbt.so/2013.1/901 2013/11/27
 49 52  0  0  0  0  0  0  0  0999 V2000
   27.9026   12.0791    7.7165 C   0  0  2  0  0  0  0  0  0  0  0  0
   27.1156   12.1274    8.8698 O   0  0  0  0  0  0  0  0  0  0  0  0
   28.8392   13.3428    7.6596 C   0  0  2  0  0  0  0  0  0  0  0  0
   29.7181   13.3680    8.9003 N   0  0  0  0  0  0  0  0  0  0  0  0
   28.7190    9.0962   14.0849 O   0  0  0  0  0  0  0  0  0  0  0  0
   27.9957   14.6335    7.5393 C   0  0  2  0  0  0  0  0  0  0  0  0
   30.5874   12.4699   16.0863 N   0  0  0  0  0  0  0  0  0  0  0  0
   27.1022   14.5760    6.2903 C   0  0  2  0  0  0  0  0  0  0  0  0
   26.1430   13.3113    6.3110 C   0  0  2  0  0  0  0  0  0  0  0  0
   27.0151   12.0665    6.4848 O   0  0  0  0  0  0  0  0  0  0  0  0
   25.2813   13.2294    5.0179 C   0  0  0  0  0  0  0  0  0  0  0  0
   25.9523   12.6337    3.9184 N   0  0  0  0  0  0  0  0  0  0  0  0
   27.1176   11.3331   13.1327 C   0  0  2  0  0  0  0  0  0  0  0  0
   27.6198   11.2242   14.5337 N   0  0  0  0  0  0  0  0  0  0  0  0
   28.2337   10.6799   12.1819 C   0  0  0  0  0  0  0  0  0  0  0  0
   27.7713   10.7306   10.6779 C   0  0  2  0  0  0  0  0  0  0  0  0
   28.7947   10.1530    9.7942 N   0  0  0  0  0  0  0  0  0  0  0  0
   27.5260   12.1894   10.2436 C   0  0  2  0  0  0  0  0  0  0  0  0
   26.4320   12.8653   11.1652 C   0  0  2  0  0  0  0  0  0  0  0  0
   26.2659   14.2450   10.6668 O   0  0  0  0  0  0  0  0  0  0  0  0
   26.9586   12.8592   12.6897 C   0  0  1  0  0  0  0  0  0  0  0  0
   25.9866   13.4645   13.4825 O   0  0  0  0  0  0  0  0  0  0  0  0
   25.1611   14.8255   10.3427 C   0  0  1  0  0  0  0  0  0  0  0  0
   24.3354   14.1283    9.2216 C   0  0  2  0  0  0  0  0  0  0  0  0
   24.7301   14.6626    7.9974 O   0  0  0  0  0  0  0  0  0  0  0  0
   22.9955   14.5972    9.6125 C   0  0  1  0  0  0  0  0  0  0  0  0
   22.9099   14.5803   11.1700 C   0  0  2  0  0  0  0  0  0  0  0  0
   24.2182   15.0160   11.4474 O   0  0  0  0  0  0  0  0  0  0  0  0
   22.4270   13.3002   11.8536 C   0  0  0  0  0  0  0  0  0  0  0  0
   21.1954   12.9650   11.2425 O   0  0  0  0  0  0  0  0  0  0  0  0
   23.0890   17.0375    9.8573 C   0  0  2  0  0  0  0  0  0  0  0  0
   22.8438   15.9733    9.0383 O   0  0  0  0  0  0  0  0  0  0  0  0
   21.8893   17.4043   10.6803 C   0  0  1  0  0  0  0  0  0  0  0  0
   25.7324   20.5485    8.4337 N   0  0  0  0  0  0  0  0  0  0  0  0
   28.3450    8.9396   17.1228 O   0  0  0  0  0  0  0  0  0  0  0  0
   22.2265   18.6687   11.5621 C   0  0  2  0  0  0  0  0  0  0  0  0
   22.6994   19.9096   10.7283 C   0  0  1  0  0  0  0  0  0  0  0  0
   23.8591   19.5352    9.9534 C   0  0  1  0  0  0  0  0  0  0  0  0
   23.5608   18.3200    9.0959 O   0  0  0  0  0  0  0  0  0  0  0  0
   24.3484   20.7550    9.0557 C   0  0  0  0  0  0  0  0  0  0  0  0
   20.8087   17.7345    9.8379 N   0  0  0  0  0  0  0  0  0  0  0  0
   28.6979   15.5316    7.4588 O   0  0  0  0  0  0  0  0  0  0  0  0
   30.2392    9.9617   16.3965 C   0  0  0  0  0  0  0  0  0  0  0  0
   21.8536   20.2071   10.0116 O   0  0  0  0  0  0  0  0  0  0  0  0
   23.0934   18.3933   12.2664 O   0  0  0  0  0  0  0  0  0  0  0  0
   28.4293   10.0082   14.8724 C   0  0  0  0  0  0  0  0  0  0  0  0
   30.7259   11.0919   15.7786 C   0  0  0  0  0  0  0  0  0  0  0  0
   28.9093   10.0416   16.4151 C   0  0  1  0  0  0  0  0  0  0  0  0
   27.8992   14.5023    5.1342 F   0  0  0  0  0  0  0  0  0  0  0  0
  1  2  1  1  0  0  0
  1 10  1  0  0  0  0
  1  3  1  0  0  0  0
  3  4  1  1  0  0  0
  3  6  1  0  0  0  0
  5 46  2  0  0  0  0
  6 42  1  6  0  0  0
  6  8  1  0  0  0  0
  7 47  1  0  0  0  0
  8  9  1  0  0  0  0
  8 49  1  6  0  0  0
  9 10  1  0  0  0  0
  9 11  1  6  0  0  0
 11 12  1  0  0  0  0
 13 14  1  1  0  0  0
 13 15  1  0  0  0  0
 13 21  1  0  0  0  0
 14 46  1  0  0  0  0
 15 16  1  0  0  0  0
 16 17  1  6  0  0  0
 16 18  1  0  0  0  0
 18  2  1  6  0  0  0
 18 19  1  0  0  0  0
 19 20  1  6  0  0  0
 19 21  1  0  0  0  0
 21 22  1  1  0  0  0
 23 20  1  1  0  0  0
 23 24  1  0  0  0  0
 23 28  1  0  0  0  0
 24 25  1  6  0  0  0
 24 26  1  0  0  0  0
 26 27  1  0  0  0  0
 26 32  1  1  0  0  0
 27 28  1  0  0  0  0
 27 29  1  1  0  0  0
 29 30  1  0  0  0  0
 31 32  1  6  0  0  0
 31 33  1  0  0  0  0
 31 39  1  0  0  0  0
 33 36  1  0  0  0  0
 33 41  1  6  0  0  0
 34 40  1  0  0  0  0
 35 48  1  0  0  0  0
 36 37  1  0  0  0  0
 36 45  1  1  0  0  0
 37 38  1  0  0  0  0
 37 44  1  6  0  0  0
 38 39  1  0  0  0  0
 38 40  1  6  0  0  0
 43 47  1  0  0  0  0
 46 48  1  0  0  0  0
 48 43  1  6  0  0  0
M  END
>  <CHROM.1>
-58.38013127,-85.18381036,82.63442075,-34.33659141,127.78680855,-58.41455764
-97.57872468,-52.65394549,-84.35151880,167.68914813,59.06664068,-176.15740553
-63.58058257,25.95459814,14.12368856,10.45639817,-0.66838555,0.85166151,-1.38393884

>  <Name>
ligand

>  <RI>
0

>  <Rbt.Current_Directory>
/home/itssahil/PROJECTS/Mol_Feturizer/New_Systems/rnas/4PDQ

>  <Rbt.Executable>
rbdock ($Id: //depot/dev/client3/rdock/2013.1/src/exe/rbdock.cxx#4 $)

>  <Rbt.Library>
libRbt.so (2013.1, Build901 2013/11/27)

>  <Rbt.Parameter_File>
/export/apps/rDock/src/rDock_2013.1_src/data/scripts/dock_solv.prm

>  <Rbt.Receptor>
prm/blind_docking_80.prm

>  <SCORE>
22.1866

>  <SCORE.INTER>
8.51805

>  <SCORE.INTER.CONST>
1

>  <SCORE.INTER.POLAR>
0

>  <SCORE.INTER.ROT>
13

>  <SCORE.INTER.SOLV>
34.1077

>  <SCORE.INTER.VDW>
-17.9572

>  <SCORE.INTER.norm>
0.173838

>  <SCORE.INTRA>
5.03568

>  <SCORE.INTRA.DIHEDRAL>
-11.9585

>  <SCORE.INTRA.DIHEDRAL.0>
34.5115

>  <SCORE.INTRA.POLAR>
0

>  <SCORE.INTRA.POLAR.0>
0

>  <SCORE.INTRA.REPUL>
0

>  <SCORE.INTRA.REPUL.0>
0

>  <SCORE.INTRA.SOLV>
3.88302

>  <SCORE.INTRA.SOLV.lig_0>
-122.812

>  <SCORE.INTRA.VDW>
9.07341

>  <SCORE.INTRA.VDW.0>
-7.46208

>  <SCORE.INTRA.norm>
0.102769

>  <SCORE.RESTR>
8.63288

>  <SCORE.RESTR.CAVITY>
8.63288

>  <SCORE.RESTR.norm>
0.176181

>  <SCORE.SYSTEM>
0

>  <SCORE.SYSTEM.CONST>
0

>  <SCORE.SYSTEM.DIHEDRAL>
0

>  <SCORE.SYSTEM.SOLV>
0

>  <SCORE.SYSTEM.norm>
0

>  <SCORE.heavy>
49

>  <SCORE.norm>
0.452788

>  <RMSD>
10.945

$$$$
ligand
 OpenBabel11021811513D
libRbt.so/2013.1/901 2013/11/27
 49 52  0  0  0  0  0  0  0  0999 V2000
   24.4723   15.2917   11.0048 C   0  0  2  0  0  0  0  0  0  0  0  0
   25.0770   14.6398    9.9271 O   0  0  0  0  0  0  0  0  0  0  0  0
   24.1673   16.7864   10.6178 C   0  0  2  0  0  0  0  0  0  0  0  0
   23.2525   16.8101    9.4032 N   0  0  0  0  0  0  0  0  0  0  0  0
   25.7200    8.4791   12.9423 O   0  0  0  0  0  0  0  0  0  0  0  0
   25.4835   17.5524   10.3479 C   0  0  2  0  0  0  0  0  0  0  0  0
   28.7997    6.3322    9.9081 N   0  0  0  0  0  0  0  0  0  0  0  0
   26.3986   17.4976   11.5812 C   0  0  2  0  0  0  0  0  0  0  0  0
   26.7275   16.0032   12.0035 C   0  0  2  0  0  0  0  0  0  0  0  0
   25.3991   15.2722   12.2070 O   0  0  0  0  0  0  0  0  0  0  0  0
   27.6086   15.9549   13.2853 C   0  0  0  0  0  0  0  0  0  0  0  0
   28.6552   16.9132   13.2982 N   0  0  0  0  0  0  0  0  0  0  0  0
   25.1968   10.3974   10.8159 C   0  0  2  0  0  0  0  0  0  0  0  0
   25.2613    8.9236   10.5907 N   0  0  0  0  0  0  0  0  0  0  0  0
   24.1160   10.9832    9.7838 C   0  0  0  0  0  0  0  0  0  0  0  0
   23.9657   12.5390    9.9709 C   0  0  2  0  0  0  0  0  0  0  0  0
   22.9927   13.0909    9.0167 N   0  0  0  0  0  0  0  0  0  0  0  0
   25.3200   13.2381    9.7380 C   0  0  2  0  0  0  0  0  0  0  0  0
   26.4110   12.6796   10.7384 C   0  0  2  0  0  0  0  0  0  0  0  0
   27.6581   13.4118   10.4418 O   0  0  0  0  0  0  0  0  0  0  0  0
   26.5926   11.0977   10.4816 C   0  0  1  0  0  0  0  0  0  0  0  0
   27.5611   10.6272   11.3650 O   0  0  0  0  0  0  0  0  0  0  0  0
   28.1838   13.6114    9.2814 C   0  0  1  0  0  0  0  0  0  0  0  0
   29.5859   14.2888    9.2827 C   0  0  2  0  0  0  0  0  0  0  0  0
   29.4008   15.6669    9.2025 O   0  0  0  0  0  0  0  0  0  0  0  0
   30.0980   13.7348    8.0183 C   0  0  1  0  0  0  0  0  0  0  0  0
   29.6286   12.2509    7.9123 C   0  0  2  0  0  0  0  0  0  0  0  0
   28.3435   12.4076    8.4622 O   0  0  0  0  0  0  0  0  0  0  0  0
   30.5274   11.1643    8.5042 C   0  0  0  0  0  0  0  0  0  0  0  0
   31.6588   11.8302    9.0326 O   0  0  0  0  0  0  0  0  0  0  0  0
   28.2042   14.8450    6.9209 C   0  0  2  0  0  0  0  0  0  0  0  0
   29.5466   14.5972    6.9235 O   0  0  0  0  0  0  0  0  0  0  0  0
   27.4403   13.8066    6.1532 C   0  0  1  0  0  0  0  0  0  0  0  0
   24.6556   18.5181    5.8182 N   0  0  0  0  0  0  0  0  0  0  0  0
   25.1219    6.3364   10.0424 O   0  0  0  0  0  0  0  0  0  0  0  0
   25.9076   14.1820    6.1481 C   0  0  2  0  0  0  0  0  0  0  0  0
   25.6100   15.6047    5.5598 C   0  0  1  0  0  0  0  0  0  0  0  0
   26.3475   16.5864    6.3200 C   0  0  1  0  0  0  0  0  0  0  0  0
   27.8260   16.2477    6.3407 O   0  0  0  0  0  0  0  0  0  0  0  0
   26.1092   18.0447    5.7287 C   0  0  0  0  0  0  0  0  0  0  0  0
   27.8857   13.7696    4.8166 N   0  0  0  0  0  0  0  0  0  0  0  0
   25.2380   18.6429   10.1094 O   0  0  0  0  0  0  0  0  0  0  0  0
   26.8335    6.0994   11.5169 C   0  0  0  0  0  0  0  0  0  0  0  0
   25.9726   15.6287    4.4710 O   0  0  0  0  0  0  0  0  0  0  0  0
   25.5372   14.1901    7.2371 O   0  0  0  0  0  0  0  0  0  0  0  0
   25.5442    8.0654   11.7875 C   0  0  0  0  0  0  0  0  0  0  0  0
   27.5762    6.6999   10.5250 C   0  0  0  0  0  0  0  0  0  0  0  0
   25.5695    6.5002   11.3863 C   0  0  1  0  0  0  0  0  0  0  0  0
   25.7746   18.1330   12.6694 F   0  0  0  0  0  0  0  0  0  0  0  0
  1  2  1  6  0  0  0
  1 10  1  0  0  0  0
  1  3  1  0  0  0  0
  3  4  1  6  0  0  0
  3  6  1  0  0  0  0
  5 46  2  0  0  0  0
  6 42  1  1  0  0  0
  6  8  1  0  0  0  0
  7 47  1  0  0  0  0
  8  9  1  0  0  0  0
  8 49  1  1  0  0  0
  9 10  1  0  0  0  0
  9 11  1  1  0  0  0
 11 12  1  0  0  0  0
 13 14  1  6  0  0  0
 13 15  1  0  0  0  0
 13 21  1  0  0  0  0
 14 46  1  0  0  0  0
 15 16  1  0  0  0  0
 16 17  1  6  0  0  0
 16 18  1  0  0  0  0
 18  2  1  1  0  0  0
 18 19  1  0  0  0  0
 19 20  1  6  0  0  0
 19 21  1  0  0  0  0
 21 22  1  1  0  0  0
 23 20  1  1  0  0  0
 23 24  1  0  0  0  0
 23 28  1  0  0  0  0
 24 25  1  6  0  0  0
 24 26  1  0  0  0  0
 26 27  1  0  0  0  0
 26 32  1  6  0  0  0
 27 28  1  0  0  0  0
 27 29  1  1  0  0  0
 29 30  1  0  0  0  0
 31 32  1  6  0  0  0
 31 33  1  0  0  0  0
 31 39  1  0  0  0  0
 33 36  1  0  0  0  0
 33 41  1  6  0  0  0
 34 40  1  0  0  0  0
 35 48  1  0  0  0  0
 36 37  1  0  0  0  0
 36 45  1  1  0  0  0
 37 38  1  0  0  0  0
 37 44  1  6  0  0  0
 38 39  1  0  0  0  0
 38 40  1  6  0  0  0
 43 47  1  0  0  0  0
 46 48  1  0  0  0  0
 48 43  1  6  0  0  0
M  END
>  <CHROM.1>
-168.25828230,52.14723208,-42.43821546,-147.19246372,-48.15003723,-173.70942301
-50.35254071,-0.56265548,-89.08809996,63.26476737,-155.77125281,50.12754620
170.55497659,26.69162924,13.42245022,9.39436138,1.68281434,1.04878933,-0.35863022

>  <Name>
ligand

>  <RI>
0

>  <Rbt.Current_Directory>
/home/itssahil/PROJECTS/Mol_Feturizer/New_Systems/rnas/4PDQ

>  <Rbt.Executable>
rbdock ($Id: //depot/dev/client3/rdock/2013.1/src/exe/rbdock.cxx#4 $)

>  <Rbt.Library>
libRbt.so (2013.1, Build901 2013/11/27)

>  <Rbt.Parameter_File>
/export/apps/rDock/src/rDock_2013.1_src/data/scripts/dock_solv.prm

>  <Rbt.Receptor>
prm/blind_docking_100.prm

>  <SCORE>
7.15385

>  <SCORE.INTER>
0.407129

>  <SCORE.INTER.CONST>
1

>  <SCORE.INTER.POLAR>
0

>  <SCORE.INTER.ROT>
13

>  <SCORE.INTER.SOLV>
30.7644

>  <SCORE.INTER.VDW>
-22.2501

>  <SCORE.INTER.norm>
0.00830876

>  <SCORE.INTRA>
3.93398

>  <SCORE.INTRA.DIHEDRAL>
-17.0905

>  <SCORE.INTRA.DIHEDRAL.0>
34.5115

>  <SCORE.INTRA.POLAR>
0

>  <SCORE.INTRA.POLAR.0>
0

>  <SCORE.INTRA.REPUL>
0.374214

>  <SCORE.INTRA.REPUL.0>
0

>  <SCORE.INTRA.SOLV>
3.28987

>  <SCORE.INTRA.SOLV.lig_0>
-122.812

>  <SCORE.INTRA.VDW>
8.96323

>  <SCORE.INTRA.VDW.0>
-7.46208

>  <SCORE.INTRA.norm>
0.0802854

>  <SCORE.RESTR>
2.81274

>  <SCORE.RESTR.CAVITY>
2.81274

>  <SCORE.RESTR.norm>
0.0574028

>  <SCORE.SYSTEM>
0

>  <SCORE.SYSTEM.CONST>
0

>  <SCORE.SYSTEM.DIHEDRAL>
0

>  <SCORE.SYSTEM.SOLV>
0

>  <SCORE.SYSTEM.norm>
0

>  <SCORE.heavy>
49

>  <SCORE.norm>
0.145997

>  <RMSD>
10.947

$$$$
ligand
 OpenBabel11021811513D
libRbt.so/2013.1/901 2013/11/27
 49 52  0  0  0  0  0  0  0  0999 V2000
   27.4893   12.0236    8.1011 C   0  0  2  0  0  0  0  0  0  0  0  0
   27.9048   10.9978    8.9539 O   0  0  0  0  0  0  0  0  0  0  0  0
   28.7324   12.6174    7.3400 C   0  0  2  0  0  0  0  0  0  0  0  0
   29.4070   11.5093    6.5466 N   0  0  0  0  0  0  0  0  0  0  0  0
   24.8375    6.1940   10.1293 O   0  0  0  0  0  0  0  0  0  0  0  0
   29.7133   13.2732    8.3397 C   0  0  2  0  0  0  0  0  0  0  0  0
   21.1315    3.9632   12.7235 N   0  0  0  0  0  0  0  0  0  0  0  0
   29.0041   14.3750    9.1427 C   0  0  2  0  0  0  0  0  0  0  0  0
   27.7416   13.8134    9.9239 C   0  0  2  0  0  0  0  0  0  0  0  0
   26.8285   13.1289    8.9051 O   0  0  0  0  0  0  0  0  0  0  0  0
   26.9966   14.9448   10.6897 C   0  0  0  0  0  0  0  0  0  0  0  0
   27.8015   15.6159   11.6466 N   0  0  0  0  0  0  0  0  0  0  0  0
   26.4085    8.0363   11.7456 C   0  0  2  0  0  0  0  0  0  0  0  0
   25.5194    6.9895   12.3293 N   0  0  0  0  0  0  0  0  0  0  0  0
   25.4599    9.2257   11.2337 C   0  0  0  0  0  0  0  0  0  0  0  0
   26.3231   10.3911   10.6214 C   0  0  2  0  0  0  0  0  0  0  0  0
   25.4640   11.4785   10.1302 N   0  0  0  0  0  0  0  0  0  0  0  0
   27.1638    9.8686    9.4393 C   0  0  2  0  0  0  0  0  0  0  0  0
   28.1088    8.6902    9.9097 C   0  0  2  0  0  0  0  0  0  0  0  0
   28.8700    8.2688    8.7171 O   0  0  0  0  0  0  0  0  0  0  0  0
   27.1974    7.4839   10.4716 C   0  0  1  0  0  0  0  0  0  0  0  0
   28.0460    6.4549   10.8726 O   0  0  0  0  0  0  0  0  0  0  0  0
   28.3931    7.7675    7.6289 C   0  0  1  0  0  0  0  0  0  0  0  0
   27.7340    8.7831    6.6497 C   0  0  2  0  0  0  0  0  0  0  0  0
   26.3781    8.8639    6.9577 O   0  0  0  0  0  0  0  0  0  0  0  0
   27.9628    8.0540    5.3911 C   0  0  1  0  0  0  0  0  0  0  0  0
   29.3771    7.3992    5.4589 C   0  0  2  0  0  0  0  0  0  0  0  0
   29.3610    7.0278    6.8155 O   0  0  0  0  0  0  0  0  0  0  0  0
   30.5736    8.2092    4.9577 C   0  0  0  0  0  0  0  0  0  0  0  0
   31.7133    7.3925    5.1497 O   0  0  0  0  0  0  0  0  0  0  0  0
   26.7087    6.3939    4.0894 C   0  0  2  0  0  0  0  0  0  0  0  0
   26.8609    7.0443    5.2799 O   0  0  0  0  0  0  0  0  0  0  0  0
   26.2922    7.3236    2.9878 C   0  0  1  0  0  0  0  0  0  0  0  0
   24.2179    2.4018    1.8129 N   0  0  0  0  0  0  0  0  0  0  0  0
   24.6877    4.2418   13.0022 O   0  0  0  0  0  0  0  0  0  0  0  0
   26.0858    6.4996    1.6579 C   0  0  2  0  0  0  0  0  0  0  0  0
   25.0441    5.3355    1.7940 C   0  0  1  0  0  0  0  0  0  0  0  0
   25.4711    4.4501    2.8520 C   0  0  1  0  0  0  0  0  0  0  0  0
   25.6773    5.2189    4.1433 O   0  0  0  0  0  0  0  0  0  0  0  0
   24.4178    3.2745    3.0553 C   0  0  0  0  0  0  0  0  0  0  0  0
   25.0679    7.9408    3.3141 N   0  0  0  0  0  0  0  0  0  0  0  0
   30.5852   13.7317    7.7602 O   0  0  0  0  0  0  0  0  0  0  0  0
   22.9731    5.7241   12.8517 C   0  0  0  0  0  0  0  0  0  0  0  0
   24.0288    5.7902    2.0768 O   0  0  0  0  0  0  0  0  0  0  0  0
   27.0903    6.0140    1.3779 O   0  0  0  0  0  0  0  0  0  0  0  0
   24.7711    6.1190   11.3644 C   0  0  0  0  0  0  0  0  0  0  0  0
   22.0504    4.8372   13.3597 C   0  0  0  0  0  0  0  0  0  0  0  0
   23.8659    5.0317   12.1454 C   0  0  1  0  0  0  0  0  0  0  0  0
   28.5662   15.3925    8.2765 F   0  0  0  0  0  0  0  0  0  0  0  0
  1  2  1  1  0  0  0
  1 10  1  0  0  0  0
  1  3  1  0  0  0  0
  3  4  1  1  0  0  0
  3  6  1  0  0  0  0
  5 46  2  0  0  0  0
  6 42  1  6  0  0  0
  6  8  1  0  0  0  0
  7 47  1  0  0  0  0
  8  9  1  0  0  0  0
  8 49  1  6  0  0  0
  9 10  1  0  0  0  0
  9 11  1  6  0  0  0
 11 12  1  0  0  0  0
 13 14  1  6  0  0  0
 13 15  1  0  0  0  0
 13 21  1  0  0  0  0
 14 46  1  0  0  0  0
 15 16  1  0  0  0  0
 16 17  1  6  0  0  0
 16 18  1  0  0  0  0
 18  2  1  1  0  0  0
 18 19  1  0  0  0  0
 19 20  1  6  0  0  0
 19 21  1  0  0  0  0
 21 22  1  1  0  0  0
 23 20  1  1  0  0  0
 23 24  1  0  0  0  0
 23 28  1  0  0  0  0
 24 25  1  1  0  0  0
 24 26  1  0  0  0  0
 26 27  1  0  0  0  0
 26 32  1  1  0  0  0
 27 28  1  0  0  0  0
 27 29  1  1  0  0  0
 29 30  1  0  0  0  0
 31 32  1  1  0  0  0
 31 33  1  0  0  0  0
 31 39  1  0  0  0  0
 33 36  1  0  0  0  0
 33 41  1  1  0  0  0
 34 40  1  0  0  0  0
 35 48  1  0  0  0  0
 36 37  1  0  0  0  0
 36 45  1  1  0  0  0
 37 38  1  0  0  0  0
 37 44  1  1  0  0  0
 38 39  1  0  0  0  0
 38 40  1  1  0  0  0
 43 47  1  0  0  0  0
 46 48  1  0  0  0  0
 48 43  1  1  0  0  0
M  END
>  <CHROM.1>
-153.78303417,-81.06568263,-59.32710307,76.26748927,-62.74084741,77.35830032
168.84435370,179.26524112,-65.87429426,60.24191183,-62.29788761,-70.10178427
121.84641512,26.80563114,8.50261281,7.74050244,-1.12751568,-1.01515659,-2.06949585

>  <Name>
ligand

>  <RI>
0

>  <Rbt.Current_Directory>
/home/itssahil/PROJECTS/Mol_Feturizer/New_Systems/rnas/4PDQ

>  <Rbt.Executable>
rbdock ($Id: //depot/dev/client3/rdock/2013.1/src/exe/rbdock.cxx#4 $)

>  <Rbt.Library>
libRbt.so (2013.1, Build901 2013/11/27)

>  <Rbt.Parameter_File>
/export/apps/rDock/src/rDock_2013.1_src/data/scripts/dock_solv.prm

>  <Rbt.Receptor>
prm/pocket_docking_7.prm

>  <SCORE>
-8.90412

>  <SCORE.INTER>
-1.7435

>  <SCORE.INTER.CONST>
1

>  <SCORE.INTER.POLAR>
0

>  <SCORE.INTER.ROT>
13

>  <SCORE.INTER.SOLV>
21.5005

>  <SCORE.INTER.VDW>
-20.5958

>  <SCORE.INTER.norm>
-0.0355816

>  <SCORE.INTRA>
-7.16062

>  <SCORE.INTRA.DIHEDRAL>
-25.9789

>  <SCORE.INTRA.DIHEDRAL.0>
34.5115

>  <SCORE.INTRA.POLAR>
0

>  <SCORE.INTRA.POLAR.0>
0

>  <SCORE.INTRA.REPUL>
0

>  <SCORE.INTRA.REPUL.0>
0

>  <SCORE.INTRA.SOLV>
3.93367

>  <SCORE.INTRA.SOLV.lig_0>
-122.812

>  <SCORE.INTRA.VDW>
3.862

>  <SCORE.INTRA.VDW.0>
-7.46208

>  <SCORE.INTRA.norm>
-0.146135

>  <SCORE.RESTR>
0

>  <SCORE.RESTR.CAVITY>
0

>  <SCORE.RESTR.norm>
0

>  <SCORE.SYSTEM>
0

>  <SCORE.SYSTEM.CONST>
0

>  <SCORE.SYSTEM.DIHEDRAL>
0

>  <SCORE.SYSTEM.SOLV>
0

>  <SCORE.SYSTEM.norm>
0

>  <SCORE.heavy>
49

>  <SCORE.norm>
-0.181717

>  <RMSD>
10.951

$$$$
ligand
 OpenBabel11021811513D
libRbt.so/2013.1/901 2013/11/27
 49 52  0  0  0  0  0  0  0  0999 V2000
   30.2805    9.3917    3.9703 C   0  0  2  0  0  0  0  0  0  0  0  0
   29.8009    9.3474    2.6588 O   0  0  0  0  0  0  0  0  0  0  0  0
   31.0539   10.7418    4.2074 C   0  0  2  0  0  0  0  0  0  0  0  0
   30.1127   11.9076    3.9477 N   0  0  0  0  0  0  0  0  0  0  0  0
   26.7751    5.6127   -0.5176 O   0  0  0  0  0  0  0  0  0  0  0  0
   32.3042   10.8129    3.3000 C   0  0  2  0  0  0  0  0  0  0  0  0
   26.4398    1.3997   -2.9472 N   0  0  0  0  0  0  0  0  0  0  0  0
   33.2294    9.6152    3.5664 C   0  0  2  0  0  0  0  0  0  0  0  0
   32.4825    8.2331    3.3389 C   0  0  2  0  0  0  0  0  0  0  0  0
   31.2278    8.2307    4.2142 O   0  0  0  0  0  0  0  0  0  0  0  0
   33.4085    7.0255    3.6642 C   0  0  0  0  0  0  0  0  0  0  0  0
   32.7519    5.7685    3.6101 N   0  0  0  0  0  0  0  0  0  0  0  0
   28.5666    5.2902    1.7541 C   0  0  2  0  0  0  0  0  0  0  0  0
   27.7767    4.1673    1.1693 N   0  0  0  0  0  0  0  0  0  0  0  0
   27.5130    6.3511    2.3380 C   0  0  0  0  0  0  0  0  0  0  0  0
   28.2660    7.5647    3.0000 C   0  0  2  0  0  0  0  0  0  0  0  0
   27.3111    8.5539    3.5211 N   0  0  0  0  0  0  0  0  0  0  0  0
   29.1676    8.2637    1.9629 C   0  0  2  0  0  0  0  0  0  0  0  0
   30.2170    7.2427    1.3635 C   0  0  2  0  0  0  0  0  0  0  0  0
   31.0297    8.0051    0.3952 O   0  0  0  0  0  0  0  0  0  0  0  0
   29.4206    6.0442    0.6349 C   0  0  1  0  0  0  0  0  0  0  0  0
   30.3604    5.1618    0.1079 O   0  0  0  0  0  0  0  0  0  0  0  0
   32.2870    7.8568    0.1502 C   0  0  1  0  0  0  0  0  0  0  0  0
   32.7080    6.4617   -0.3984 C   0  0  2  0  0  0  0  0  0  0  0  0
   33.0393    5.6523    0.6856 O   0  0  0  0  0  0  0  0  0  0  0  0
   33.9028    6.8746   -1.1533 C   0  0  1  0  0  0  0  0  0  0  0  0
   33.5972    8.2433   -1.8365 C   0  0  2  0  0  0  0  0  0  0  0  0
   32.8483    8.8233   -0.7967 O   0  0  0  0  0  0  0  0  0  0  0  0
   32.9800    8.2310   -3.2357 C   0  0  0  0  0  0  0  0  0  0  0  0
   31.8741    7.3504   -3.1733 O   0  0  0  0  0  0  0  0  0  0  0  0
   36.2432    7.3751   -0.6097 C   0  0  2  0  0  0  0  0  0  0  0  0
   35.0230    6.9589   -0.1611 O   0  0  0  0  0  0  0  0  0  0  0  0
   37.2960    7.2874    0.4557 C   0  0  1  0  0  0  0  0  0  0  0  0
   36.8009   11.8146   -1.2369 N   0  0  0  0  0  0  0  0  0  0  0  0
   25.0691    2.8387    0.3798 O   0  0  0  0  0  0  0  0  0  0  0  0
   38.6637    7.8301   -0.1143 C   0  0  2  0  0  0  0  0  0  0  0  0
   38.5801    9.2977   -0.6602 C   0  0  1  0  0  0  0  0  0  0  0  0
   37.5687    9.3546   -1.6894 C   0  0  1  0  0  0  0  0  0  0  0  0
   36.2422    8.8372   -1.1662 O   0  0  0  0  0  0  0  0  0  0  0  0
   37.4184   10.8392   -2.2431 C   0  0  0  0  0  0  0  0  0  0  0  0
   36.9343    8.0867    1.5587 N   0  0  0  0  0  0  0  0  0  0  0  0
   32.8697   11.7816    3.5196 O   0  0  0  0  0  0  0  0  0  0  0  0
   25.6272    3.4863   -1.7248 C   0  0  0  0  0  0  0  0  0  0  0  0
   38.2707    9.9875    0.2035 O   0  0  0  0  0  0  0  0  0  0  0  0
   38.9717    7.1644   -1.0004 O   0  0  0  0  0  0  0  0  0  0  0  0
   26.8941    4.4938    0.0016 C   0  0  0  0  0  0  0  0  0  0  0  0
   25.4849    2.3187   -2.4406 C   0  0  0  0  0  0  0  0  0  0  0  0
   26.1178    3.1779   -0.5250 C   0  0  1  0  0  0  0  0  0  0  0  0
   33.6890    9.6512    4.8949 F   0  0  0  0  0  0  0  0  0  0  0  0
  1  2  1  6  0  0  0
  1 10  1  0  0  0  0
  1  3  1  0  0  0  0
  3  4  1  6  0  0  0
  3  6  1  0  0  0  0
  5 46  2  0  0  0  0
  6 42  1  1  0  0  0
  6  8  1  0  0  0  0
  7 47  1  0  0  0  0
  8  9  1  0  0  0  0
  8 49  1  1  0  0  0
  9 10  1  0  0  0  0
  9 11  1  1  0  0  0
 11 12  1  0  0  0  0
 13 14  1  6  0  0  0
 13 15  1  0  0  0  0
 13 21  1  0  0  0  0
 14 46  1  0  0  0  0
 15 16  1  0  0  0  0
 16 17  1  6  0  0  0
 16 18  1  0  0  0  0
 18  2  1  1  0  0  0
 18 19  1  0  0  0  0
 19 20  1  6  0  0  0
 19 21  1  0  0  0  0
 21 22  1  1  0  0  0
 23 20  1  6  0  0  0
 23 24  1  0  0  0  0
 23 28  1  0  0  0  0
 24 25  1  1  0  0  0
 24 26  1  0  0  0  0
 26 27  1  0  0  0  0
 26 32  1  1  0  0  0
 27 28  1  0  0  0  0
 27 29  1  6  0  0  0
 29 30  1  0  0  0  0
 31 32  1  1  0  0  0
 31 33  1  0  0  0  0
 31 39  1  0  0  0  0
 33 36  1  0  0  0  0
 33 41  1  1  0  0  0
 34 40  1  0  0  0  0
 35 48  1  0  0  0  0
 36 37  1  0  0  0  0
 36 45  1  6  0  0  0
 37 38  1  0  0  0  0
 37 44  1  1  0  0  0
 38 39  1  0  0  0  0
 38 40  1  1  0  0  0
 43 47  1  0  0  0  0
 46 48  1  0  0  0  0
 48 43  1  6  0  0  0
M  END
>  <CHROM.1>
172.82755903,37.85970121,173.90476404,63.57591039,144.52447897,61.45017075
-177.63385323,49.93186098,-174.57099905,-69.33267545,-66.55988842,-86.25177725
-106.45570921,31.99474707,7.50215807,0.76264556,2.88439972,-0.36339175,-2.23077130

>  <Name>
ligand

>  <RI>
0

>  <Rbt.Current_Directory>
/home/itssahil/PROJECTS/Mol_Feturizer/New_Systems/rnas/4PDQ

>  <Rbt.Executable>
rbdock ($Id: //depot/dev/client3/rdock/2013.1/src/exe/rbdock.cxx#4 $)

>  <Rbt.Library>
libRbt.so (2013.1, Build901 2013/11/27)

>  <Rbt.Parameter_File>
/export/apps/rDock/src/rDock_2013.1_src/data/scripts/dock_solv.prm

>  <Rbt.Receptor>
prm/pocket_docking_8.prm

>  <SCORE>
-5.04055

>  <SCORE.INTER>
3.39979

>  <SCORE.INTER.CONST>
1

>  <SCORE.INTER.POLAR>
0

>  <SCORE.INTER.ROT>
13

>  <SCORE.INTER.SOLV>
12.6355

>  <SCORE.INTER.VDW>
-14.212

>  <SCORE.INTER.norm>
0.0693834

>  <SCORE.INTRA>
-8.4406

>  <SCORE.INTRA.DIHEDRAL>
-23.1512

>  <SCORE.INTRA.DIHEDRAL.0>
34.5115

>  <SCORE.INTRA.POLAR>
0

>  <SCORE.INTRA.POLAR.0>
0

>  <SCORE.INTRA.REPUL>
0

>  <SCORE.INTRA.REPUL.0>
0

>  <SCORE.INTRA.SOLV>
2.69084

>  <SCORE.INTRA.SOLV.lig_0>
-122.812

>  <SCORE.INTRA.VDW>
1.78958

>  <SCORE.INTRA.VDW.0>
-7.46208

>  <SCORE.INTRA.norm>
-0.172257

>  <SCORE.RESTR>
0.000260858

>  <SCORE.RESTR.CAVITY>
0.000260858

>  <SCORE.RESTR.norm>
5.32364e-06

>  <SCORE.SYSTEM>
0

>  <SCORE.SYSTEM.CONST>
0

>  <SCORE.SYSTEM.DIHEDRAL>
0

>  <SCORE.SYSTEM.SOLV>
0

>  <SCORE.SYSTEM.norm>
0

>  <SCORE.heavy>
49

>  <SCORE.norm>
-0.102868

>  <RMSD>
10.974

$$$$
ligand
 OpenBabel11021811513D
libRbt.so/2013.1/901 2013/11/27
 49 52  0  0  0  0  0  0  0  0999 V2000
   23.4711   18.6915    7.9009 C   0  0  2  0  0  0  0  0  0  0  0  0
   23.3866   17.5038    8.6318 O   0  0  0  0  0  0  0  0  0  0  0  0
   22.5814   18.5830    6.6071 C   0  0  2  0  0  0  0  0  0  0  0  0
   21.1413   18.3123    7.0137 N   0  0  0  0  0  0  0  0  0  0  0  0
   27.9424   18.5028   13.5983 O   0  0  0  0  0  0  0  0  0  0  0  0
   23.1218   17.4752    5.6730 C   0  0  2  0  0  0  0  0  0  0  0  0
   28.2274   14.5765   15.6663 N   0  0  0  0  0  0  0  0  0  0  0  0
   24.5831   17.7601    5.2923 C   0  0  2  0  0  0  0  0  0  0  0  0
   25.5124   17.8783    6.5737 C   0  0  2  0  0  0  0  0  0  0  0  0
   24.9105   18.9450    7.4904 O   0  0  0  0  0  0  0  0  0  0  0  0
   26.9791   18.2218    6.1834 C   0  0  0  0  0  0  0  0  0  0  0  0
   27.5833   17.2657    5.3262 N   0  0  0  0  0  0  0  0  0  0  0  0
   25.2783   18.1464   12.4804 C   0  0  2  0  0  0  0  0  0  0  0  0
   25.5854   17.9820   13.9315 N   0  0  0  0  0  0  0  0  0  0  0  0
   23.6798   18.1905   12.3409 C   0  0  0  0  0  0  0  0  0  0  0  0
   23.2656   18.3878   10.8350 C   0  0  2  0  0  0  0  0  0  0  0  0
   21.8025   18.4096   10.6915 N   0  0  0  0  0  0  0  0  0  0  0  0
   23.8181   17.2344    9.9739 C   0  0  2  0  0  0  0  0  0  0  0  0
   25.3940   17.1602   10.0923 C   0  0  2  0  0  0  0  0  0  0  0  0
   25.8214   16.0387    9.2327 O   0  0  0  0  0  0  0  0  0  0  0  0
   25.7888   16.8926   11.6331 C   0  0  1  0  0  0  0  0  0  0  0  0
   27.1774   16.8228   11.7150 O   0  0  0  0  0  0  0  0  0  0  0  0
   25.7003   14.7794    9.4823 C   0  0  1  0  0  0  0  0  0  0  0  0
   24.3940   14.1104    8.9619 C   0  0  2  0  0  0  0  0  0  0  0  0
   23.4368   14.1873    9.9707 O   0  0  0  0  0  0  0  0  0  0  0  0
   24.9013   12.7380    8.7976 C   0  0  1  0  0  0  0  0  0  0  0  0
   26.3551   12.8208    8.2382 C   0  0  2  0  0  0  0  0  0  0  0  0
   26.7872   13.9424    8.9689 O   0  0  0  0  0  0  0  0  0  0  0  0
   26.5458   12.8442    6.7210 C   0  0  0  0  0  0  0  0  0  0  0  0
   25.9306   14.0333    6.2626 O   0  0  0  0  0  0  0  0  0  0  0  0
   25.9984   11.6283   10.6919 C   0  0  2  0  0  0  0  0  0  0  0  0
   24.8361   12.0971   10.1508 O   0  0  0  0  0  0  0  0  0  0  0  0
   26.3650   10.2757   10.1559 C   0  0  1  0  0  0  0  0  0  0  0  0
   26.0834   12.0407   15.0341 N   0  0  0  0  0  0  0  0  0  0  0  0
   25.9498   17.5427   16.5129 O   0  0  0  0  0  0  0  0  0  0  0  0
   27.6857    9.7746   10.8594 C   0  0  2  0  0  0  0  0  0  0  0  0
   27.5832    9.7175   12.4230 C   0  0  1  0  0  0  0  0  0  0  0  0
   27.2396   11.0309   12.9153 C   0  0  1  0  0  0  0  0  0  0  0  0
   25.9717   11.5364   12.2533 O   0  0  0  0  0  0  0  0  0  0  0  0
   27.0815   11.0100   14.4989 C   0  0  0  0  0  0  0  0  0  0  0  0
   25.3406    9.3503   10.4394 N   0  0  0  0  0  0  0  0  0  0  0  0
   22.4849   17.4438    4.7245 O   0  0  0  0  0  0  0  0  0  0  0  0
   28.1388   17.0869   16.1120 C   0  0  0  0  0  0  0  0  0  0  0  0
   26.7457    8.9844   12.7038 O   0  0  0  0  0  0  0  0  0  0  0  0
   28.5282   10.5169   10.6098 O   0  0  0  0  0  0  0  0  0  0  0  0
   27.0087   18.1954   14.3528 C   0  0  0  0  0  0  0  0  0  0  0  0
   27.6726   15.8819   15.6357 C   0  0  0  0  0  0  0  0  0  0  0  0
   27.1781   17.9954   15.9474 C   0  0  1  0  0  0  0  0  0  0  0  0
   24.6652   18.9690    4.5787 F   0  0  0  0  0  0  0  0  0  0  0  0
  1  2  1  6  0  0  0
  1 10  1  0  0  0  0
  1  3  1  0  0  0  0
  3  4  1  1  0  0  0
  3  6  1  0  0  0  0
  5 46  2  0  0  0  0
  6 42  1  6  0  0  0
  6  8  1  0  0  0  0
  7 47  1  0  0  0  0
  8  9  1  0  0  0  0
  8 49  1  1  0  0  0
  9 10  1  0  0  0  0
  9 11  1  6  0  0  0
 11 12  1  0  0  0  0
 13 14  1  1  0  0  0
 13 15  1  0  0  0  0
 13 21  1  0  0  0  0
 14 46  1  0  0  0  0
 15 16  1  0  0  0  0
 16 17  1  1  0  0  0
 16 18  1  0  0  0  0
 18  2  1  6  0  0  0
 18 19  1  0  0  0  0
 19 20  1  6  0  0  0
 19 21  1  0  0  0  0
 21 22  1  6  0  0  0
 23 20  1  6  0  0  0
 23 24  1  0  0  0  0
 23 28  1  0  0  0  0
 24 25  1  1  0  0  0
 24 26  1  0  0  0  0
 26 27  1  0  0  0  0
 26 32  1  1  0  0  0
 27 28  1  0  0  0  0
 27 29  1  6  0  0  0
 29 30  1  0  0  0  0
 31 32  1  6  0  0  0
 31 33  1  0  0  0  0
 31 39  1  0  0  0  0
 33 36  1  0  0  0  0
 33 41  1  1  0  0  0
 34 40  1  0  0  0  0
 35 48  1  0  0  0  0
 36 37  1  0  0  0  0
 36 45  1  1  0  0  0
 37 38  1  0  0  0  0
 37 44  1  6  0  0  0
 38 39  1  0  0  0  0
 38 40  1  1  0  0  0
 43 47  1  0  0  0  0
 46 48  1  0  0  0  0
 48 43  1  6  0  0  0
M  END
>  <CHROM.1>
-167.37474988,48.46180913,-59.17011589,-167.75789194,-74.71562210,91.35758455
-121.02105590,63.55264115,-81.32298964,-150.37497190,-173.93051002,52.37807274
-175.38223535,25.58710911,15.30098645,10.30254254,3.11350445,1.24002997,-2.43683480

>  <Name>
ligand

>  <RI>
0

>  <Rbt.Current_Directory>
/home/itssahil/PROJECTS/Mol_Feturizer/New_Systems/rnas/4PDQ

>  <Rbt.Executable>
rbdock ($Id: //depot/dev/client3/rdock/2013.1/src/exe/rbdock.cxx#4 $)

>  <Rbt.Library>
libRbt.so (2013.1, Build901 2013/11/27)

>  <Rbt.Parameter_File>
/export/apps/rDock/src/rDock_2013.1_src/data/scripts/dock_solv.prm

>  <Rbt.Receptor>
prm/blind_docking_40.prm

>  <SCORE>
5.53199

>  <SCORE.INTER>
2.65281

>  <SCORE.INTER.CONST>
1

>  <SCORE.INTER.POLAR>
0

>  <SCORE.INTER.ROT>
13

>  <SCORE.INTER.SOLV>
32.4635

>  <SCORE.INTER.VDW>
-21.3193

>  <SCORE.INTER.norm>
0.0541389

>  <SCORE.INTRA>
0.962576

>  <SCORE.INTRA.DIHEDRAL>
-13.5117

>  <SCORE.INTRA.DIHEDRAL.0>
34.5115

>  <SCORE.INTRA.POLAR>
0

>  <SCORE.INTRA.POLAR.0>
0

>  <SCORE.INTRA.REPUL>
0

>  <SCORE.INTRA.REPUL.0>
0

>  <SCORE.INTRA.SOLV>
3.03008

>  <SCORE.INTRA.SOLV.lig_0>
-122.812

>  <SCORE.INTRA.VDW>
6.20337

>  <SCORE.INTRA.VDW.0>
-7.46208

>  <SCORE.INTRA.norm>
0.0196444

>  <SCORE.RESTR>
1.9166

>  <SCORE.RESTR.CAVITY>
1.9166

>  <SCORE.RESTR.norm>
0.0391144

>  <SCORE.SYSTEM>
0

>  <SCORE.SYSTEM.CONST>
0

>  <SCORE.SYSTEM.DIHEDRAL>
0

>  <SCORE.SYSTEM.SOLV>
0

>  <SCORE.SYSTEM.norm>
0

>  <SCORE.heavy>
49

>  <SCORE.norm>
0.112898

>  <RMSD>
10.981

$$$$
ligand
 OpenBabel11021811513D
libRbt.so/2013.1/901 2013/11/27
 49 52  0  0  0  0  0  0  0  0999 V2000
   23.7479   15.1929    7.5219 C   0  0  2  0  0  0  0  0  0  0  0  0
   24.1177   15.6979    8.7709 O   0  0  0  0  0  0  0  0  0  0  0  0
   23.8944   13.6258    7.5183 C   0  0  2  0  0  0  0  0  0  0  0  0
   23.0116   13.0402    8.6093 N   0  0  0  0  0  0  0  0  0  0  0  0
   22.8110   21.0151   10.4785 O   0  0  0  0  0  0  0  0  0  0  0  0
   25.3747   13.2227    7.7133 C   0  0  2  0  0  0  0  0  0  0  0  0
   23.5085   22.4522    7.7246 N   0  0  0  0  0  0  0  0  0  0  0  0
   26.2490   13.8420    6.6116 C   0  0  2  0  0  0  0  0  0  0  0  0
   26.1258   15.4243    6.5829 C   0  0  2  0  0  0  0  0  0  0  0  0
   24.6433   15.7749    6.4429 O   0  0  0  0  0  0  0  0  0  0  0  0
   26.9701   16.0400    5.4298 C   0  0  0  0  0  0  0  0  0  0  0  0
   26.8703   17.4526    5.3371 N   0  0  0  0  0  0  0  0  0  0  0  0
   25.2497   19.8341    9.4142 C   0  0  2  0  0  0  0  0  0  0  0  0
   25.1195   21.2833    9.7458 N   0  0  0  0  0  0  0  0  0  0  0  0
   24.0326   19.4655    8.4347 C   0  0  0  0  0  0  0  0  0  0  0  0
   24.1073   17.9507    8.0127 C   0  0  2  0  0  0  0  0  0  0  0  0
   22.9856   17.5955    7.1309 N   0  0  0  0  0  0  0  0  0  0  0  0
   24.0468   17.0456    9.2593 C   0  0  2  0  0  0  0  0  0  0  0  0
   25.2326   17.3865   10.2496 C   0  0  2  0  0  0  0  0  0  0  0  0
   25.0908   16.4683   11.3968 O   0  0  0  0  0  0  0  0  0  0  0  0
   25.0953   18.9240   10.7174 C   0  0  1  0  0  0  0  0  0  0  0  0
   26.1420   19.2018   11.5932 O   0  0  0  0  0  0  0  0  0  0  0  0
   25.8951   15.5188   11.7351 C   0  0  1  0  0  0  0  0  0  0  0  0
   25.5446   14.1069   11.1796 C   0  0  2  0  0  0  0  0  0  0  0  0
   24.7318   13.4649   12.1108 O   0  0  0  0  0  0  0  0  0  0  0  0
   26.9020   13.5367   11.1585 C   0  0  1  0  0  0  0  0  0  0  0  0
   27.8904   14.6515   10.6962 C   0  0  2  0  0  0  0  0  0  0  0  0
   27.2955   15.7366   11.3650 O   0  0  0  0  0  0  0  0  0  0  0  0
   28.1615   14.8017    9.1986 C   0  0  0  0  0  0  0  0  0  0  0  0
   28.6536   13.5503    8.7575 O   0  0  0  0  0  0  0  0  0  0  0  0
   26.5969   11.8878   12.9505 C   0  0  2  0  0  0  0  0  0  0  0  0
   27.1809   13.0548   12.5500 O   0  0  0  0  0  0  0  0  0  0  0  0
   27.2417   11.3287   14.1846 C   0  0  1  0  0  0  0  0  0  0  0  0
   25.1422    7.1853   11.2212 N   0  0  0  0  0  0  0  0  0  0  0  0
   25.1315   23.8416   10.4125 O   0  0  0  0  0  0  0  0  0  0  0  0
   26.5533    9.9593   14.5600 C   0  0  2  0  0  0  0  0  0  0  0  0
   26.5977    8.8960   13.4083 C   0  0  1  0  0  0  0  0  0  0  0  0
   25.9636    9.4526   12.2362 C   0  0  1  0  0  0  0  0  0  0  0  0
   26.6077   10.7718   11.8542 O   0  0  0  0  0  0  0  0  0  0  0  0
   26.0247    8.4214   11.0255 C   0  0  0  0  0  0  0  0  0  0  0  0
   28.6080   11.0799   13.9450 N   0  0  0  0  0  0  0  0  0  0  0  0
   25.4604   12.0840    7.6663 O   0  0  0  0  0  0  0  0  0  0  0  0
   22.9568   23.8906    9.7581 C   0  0  0  0  0  0  0  0  0  0  0  0
   27.6969    8.6721   13.1653 O   0  0  0  0  0  0  0  0  0  0  0  0
   25.4427   10.1647   14.7783 O   0  0  0  0  0  0  0  0  0  0  0  0
   23.7961   21.7409   10.2825 C   0  0  0  0  0  0  0  0  0  0  0  0
   23.3988   23.6505    8.4763 C   0  0  0  0  0  0  0  0  0  0  0  0
   23.8165   23.3245   10.6041 C   0  0  1  0  0  0  0  0  0  0  0  0
   25.8559   13.3492    5.3546 F   0  0  0  0  0  0  0  0  0  0  0  0
  1  2  1  1  0  0  0
  1 10  1  0  0  0  0
  1  3  1  0  0  0  0
  3  4  1  1  0  0  0
  3  6  1  0  0  0  0
  5 46  2  0  0  0  0
  6 42  1  6  0  0  0
  6  8  1  0  0  0  0
  7 47  1  0  0  0  0
  8  9  1  0  0  0  0
  8 49  1  6  0  0  0
  9 10  1  0  0  0  0
  9 11  1  6  0  0  0
 11 12  1  0  0  0  0
 13 14  1  1  0  0  0
 13 15  1  0  0  0  0
 13 21  1  0  0  0  0
 14 46  1  0  0  0  0
 15 16  1  0  0  0  0
 16 17  1  6  0  0  0
 16 18  1  0  0  0  0
 18  2  1  6  0  0  0
 18 19  1  0  0  0  0
 19 20  1  1  0  0  0
 19 21  1  0  0  0  0
 21 22  1  1  0  0  0
 23 20  1  6  0  0  0
 23 24  1  0  0  0  0
 23 28  1  0  0  0  0
 24 25  1  1  0  0  0
 24 26  1  0  0  0  0
 26 27  1  0  0  0  0
 26 32  1  1  0  0  0
 27 28  1  0  0  0  0
 27 29  1  6  0  0  0
 29 30  1  0  0  0  0
 31 32  1  6  0  0  0
 31 33  1  0  0  0  0
 31 39  1  0  0  0  0
 33 36  1  0  0  0  0
 33 41  1  6  0  0  0
 34 40  1  0  0  0  0
 35 48  1  0  0  0  0
 36 37  1  0  0  0  0
 36 45  1  6  0  0  0
 37 38  1  0  0  0  0
 37 44  1  6  0  0  0
 38 39  1  0  0  0  0
 38 40  1  6  0  0  0
 43 47  1  0  0  0  0
 46 48  1  0  0  0  0
 48 43  1  6  0  0  0
M  END
>  <CHROM.1>
-174.78598372,-25.58785582,178.53327320,53.00270386,113.38405676,-93.76781824
76.37425133,-57.73611508,164.06785250,69.25714248,66.89070859,58.22081501
173.50903545,25.51728977,15.39770668,9.97575064,2.89809733,-1.36028880,1.04666500

>  <Name>
ligand

>  <RI>
0

>  <Rbt.Current_Directory>
/home/itssahil/PROJECTS/Mol_Feturizer/New_Systems/rnas/4PDQ

>  <Rbt.Executable>
rbdock ($Id: //depot/dev/client3/rdock/2013.1/src/exe/rbdock.cxx#4 $)

>  <Rbt.Library>
libRbt.so (2013.1, Build901 2013/11/27)

>  <Rbt.Parameter_File>
/export/apps/rDock/src/rDock_2013.1_src/data/scripts/dock_solv.prm

>  <Rbt.Receptor>
prm/blind_docking_40.prm

>  <SCORE>
7.8415

>  <SCORE.INTER>
-1.53723

>  <SCORE.INTER.CONST>
1

>  <SCORE.INTER.POLAR>
0

>  <SCORE.INTER.ROT>
13

>  <SCORE.INTER.SOLV>
26.941

>  <SCORE.INTER.VDW>
-22.2718

>  <SCORE.INTER.norm>
-0.0313721

>  <SCORE.INTRA>
5.97803

>  <SCORE.INTRA.DIHEDRAL>
-13.2423

>  <SCORE.INTRA.DIHEDRAL.0>
34.5115

>  <SCORE.INTRA.POLAR>
0

>  <SCORE.INTRA.POLAR.0>
0

>  <SCORE.INTRA.REPUL>
0

>  <SCORE.INTRA.REPUL.0>
0

>  <SCORE.INTRA.SOLV>
6.89857

>  <SCORE.INTRA.SOLV.lig_0>
-122.812

>  <SCORE.INTRA.VDW>
9.1499

>  <SCORE.INTRA.VDW.0>
-7.46208

>  <SCORE.INTRA.norm>
0.122001

>  <SCORE.RESTR>
3.4007

>  <SCORE.RESTR.CAVITY>
3.4007

>  <SCORE.RESTR.norm>
0.0694021

>  <SCORE.SYSTEM>
0

>  <SCORE.SYSTEM.CONST>
0

>  <SCORE.SYSTEM.DIHEDRAL>
0

>  <SCORE.SYSTEM.SOLV>
0

>  <SCORE.SYSTEM.norm>
0

>  <SCORE.heavy>
49

>  <SCORE.norm>
0.160031

>  <RMSD>
10.984

$$$$
ligand
 OpenBabel11021811513D
libRbt.so/2013.1/901 2013/11/27
 49 52  0  0  0  0  0  0  0  0999 V2000
   26.0528    6.5172   12.8029 C   0  0  2  0  0  0  0  0  0  0  0  0
   25.9527    7.1397   11.5562 O   0  0  0  0  0  0  0  0  0  0  0  0
   26.9048    5.2003   12.6718 C   0  0  2  0  0  0  0  0  0  0  0  0
   28.2864    5.5511   12.1421 N   0  0  0  0  0  0  0  0  0  0  0  0
   27.2526   13.4032    9.8884 O   0  0  0  0  0  0  0  0  0  0  0  0
   26.1886    4.1848   11.7512 C   0  0  2  0  0  0  0  0  0  0  0  0
   26.7193   15.1979    7.7815 N   0  0  0  0  0  0  0  0  0  0  0  0
   24.7884    3.8614   12.2959 C   0  0  2  0  0  0  0  0  0  0  0  0
   23.8989    5.1677   12.4439 C   0  0  2  0  0  0  0  0  0  0  0  0
   24.6691    6.1610   13.3159 O   0  0  0  0  0  0  0  0  0  0  0  0
   22.5026    4.8400   13.0479 C   0  0  0  0  0  0  0  0  0  0  0  0
   21.7721    3.8718   12.3111 N   0  0  0  0  0  0  0  0  0  0  0  0
   27.4537   10.5512    9.3401 C   0  0  2  0  0  0  0  0  0  0  0  0
   28.4193   11.5569    8.8076 N   0  0  0  0  0  0  0  0  0  0  0  0
   27.7418   10.4108   10.9129 C   0  0  0  0  0  0  0  0  0  0  0  0
   26.7448    9.3808   11.5635 C   0  0  2  0  0  0  0  0  0  0  0  0
   27.0119    9.2282   13.0013 N   0  0  0  0  0  0  0  0  0  0  0  0
   26.8932    7.9992   10.8956 C   0  0  2  0  0  0  0  0  0  0  0  0
   26.6194    8.1033    9.3409 C   0  0  2  0  0  0  0  0  0  0  0  0
   26.7777    6.7386    8.8005 O   0  0  0  0  0  0  0  0  0  0  0  0
   27.6947    9.1131    8.6887 C   0  0  1  0  0  0  0  0  0  0  0  0
   27.4423    9.1849    7.3209 O   0  0  0  0  0  0  0  0  0  0  0  0
   26.5588    6.3529    7.5896 C   0  0  1  0  0  0  0  0  0  0  0  0
   26.9267    4.8729    7.2754 C   0  0  2  0  0  0  0  0  0  0  0  0
   28.2438    4.8408    6.8237 O   0  0  0  0  0  0  0  0  0  0  0  0
   25.9709    4.6373    6.1804 C   0  0  1  0  0  0  0  0  0  0  0  0
   24.6321    5.3517    6.5417 C   0  0  2  0  0  0  0  0  0  0  0  0
   25.1747    6.5058    7.1352 O   0  0  0  0  0  0  0  0  0  0  0  0
   23.5862    4.5684    7.3364 C   0  0  0  0  0  0  0  0  0  0  0  0
   23.2170    3.4673    6.5277 O   0  0  0  0  0  0  0  0  0  0  0  0
   25.9037    5.0988    3.7708 C   0  0  2  0  0  0  0  0  0  0  0  0
   26.6050    5.1872    4.9387 O   0  0  0  0  0  0  0  0  0  0  0  0
   25.6708    3.6750    3.3590 C   0  0  1  0  0  0  0  0  0  0  0  0
   26.9890    8.0317    0.5389 N   0  0  0  0  0  0  0  0  0  0  0  0
   30.5901   13.3320    8.6454 O   0  0  0  0  0  0  0  0  0  0  0  0
   24.9028    3.6480    1.9807 C   0  0  2  0  0  0  0  0  0  0  0  0
   25.6419    4.4198    0.8331 C   0  0  1  0  0  0  0  0  0  0  0  0
   25.8456    5.7878    1.2484 C   0  0  1  0  0  0  0  0  0  0  0  0
   26.5827    5.8415    2.5731 O   0  0  0  0  0  0  0  0  0  0  0  0
   26.6337    6.5997    0.1290 C   0  0  0  0  0  0  0  0  0  0  0  0
   26.9039    3.0149    3.1852 N   0  0  0  0  0  0  0  0  0  0  0  0
   26.8056    3.2238   11.7048 O   0  0  0  0  0  0  0  0  0  0  0  0
   28.9757   14.1281    7.2598 C   0  0  0  0  0  0  0  0  0  0  0  0
   26.6645    3.9259    0.6657 O   0  0  0  0  0  0  0  0  0  0  0  0
   23.8864    4.1662    2.1269 O   0  0  0  0  0  0  0  0  0  0  0  0
   28.1787   12.9905    9.1758 C   0  0  0  0  0  0  0  0  0  0  0  0
   28.0117   15.1096    7.2029 C   0  0  0  0  0  0  0  0  0  0  0  0
   29.3103   13.9515    8.5373 C   0  0  1  0  0  0  0  0  0  0  0  0
   24.8944    3.2580   13.5615 F   0  0  0  0  0  0  0  0  0  0  0  0
  1  2  1  6  0  0  0
  1 10  1  0  0  0  0
  1  3  1  0  0  0  0
  3  4  1  6  0  0  0
  3  6  1  0  0  0  0
  5 46  2  0  0  0  0
  6 42  1  1  0  0  0
  6  8  1  0  0  0  0
  7 47  1  0  0  0  0
  8  9  1  0  0  0  0
  8 49  1  1  0  0  0
  9 10  1  0  0  0  0
  9 11  1  1  0  0  0
 11 12  1  0  0  0  0
 13 14  1  6  0  0  0
 13 15  1  0  0  0  0
 13 21  1  0  0  0  0
 14 46  1  0  0  0  0
 15 16  1  0  0  0  0
 16 17  1  1  0  0  0
 16 18  1  0  0  0  0
 18  2  1  1  0  0  0
 18 19  1  0  0  0  0
 19 20  1  6  0  0  0
 19 21  1  0  0  0  0
 21 22  1  6  0  0  0
 23 20  1  1  0  0  0
 23 24  1  0  0  0  0
 23 28  1  0  0  0  0
 24 25  1  6  0  0  0
 24 26  1  0  0  0  0
 26 27  1  0  0  0  0
 26 32  1  6  0  0  0
 27 28  1  0  0  0  0
 27 29  1  1  0  0  0
 29 30  1  0  0  0  0
 31 32  1  1  0  0  0
 31 33  1  0  0  0  0
 31 39  1  0  0  0  0
 33 36  1  0  0  0  0
 33 41  1  6  0  0  0
 34 40  1  0  0  0  0
 35 48  1  0  0  0  0
 36 37  1  0  0  0  0
 36 45  1  1  0  0  0
 37 38  1  0  0  0  0
 37 44  1  1  0  0  0
 38 39  1  0  0  0  0
 38 40  1  6  0  0  0
 43 47  1  0  0  0  0
 46 48  1  0  0  0  0
 48 43  1  6  0  0  0
M  END
>  <CHROM.1>
-81.76196122,-78.14678226,-56.56201465,-72.20331480,175.12457067,175.00545419
-179.51214667,-62.00069028,-63.74778936,-175.38199768,-59.50200984,-159.24755784
138.14456817,26.33934733,7.08721521,7.91932696,1.25949558,1.20346872,1.37296154

>  <Name>
ligand

>  <RI>
0

>  <Rbt.Current_Directory>
/home/itssahil/PROJECTS/Mol_Feturizer/New_Systems/rnas/4PDQ

>  <Rbt.Executable>
rbdock ($Id: //depot/dev/client3/rdock/2013.1/src/exe/rbdock.cxx#4 $)

>  <Rbt.Library>
libRbt.so (2013.1, Build901 2013/11/27)

>  <Rbt.Parameter_File>
/export/apps/rDock/src/rDock_2013.1_src/data/scripts/dock_solv.prm

>  <Rbt.Receptor>
prm/pocket_docking_8.prm

>  <SCORE>
-12.7216

>  <SCORE.INTER>
-2.21413

>  <SCORE.INTER.CONST>
1

>  <SCORE.INTER.POLAR>
0

>  <SCORE.INTER.ROT>
13

>  <SCORE.INTER.SOLV>
16.088

>  <SCORE.INTER.VDW>
-19.1054

>  <SCORE.INTER.norm>
-0.0451863

>  <SCORE.INTRA>
-10.5074

>  <SCORE.INTRA.DIHEDRAL>
-27.7298

>  <SCORE.INTRA.DIHEDRAL.0>
34.5115

>  <SCORE.INTRA.POLAR>
0

>  <SCORE.INTRA.POLAR.0>
0

>  <SCORE.INTRA.REPUL>
0

>  <SCORE.INTRA.REPUL.0>
0

>  <SCORE.INTRA.SOLV>
1.02809

>  <SCORE.INTRA.SOLV.lig_0>
-122.812

>  <SCORE.INTRA.VDW>
2.84341

>  <SCORE.INTRA.VDW.0>
-7.46208

>  <SCORE.INTRA.norm>
-0.214437

>  <SCORE.RESTR>
0

>  <SCORE.RESTR.CAVITY>
0

>  <SCORE.RESTR.norm>
0

>  <SCORE.SYSTEM>
0

>  <SCORE.SYSTEM.CONST>
0

>  <SCORE.SYSTEM.DIHEDRAL>
0

>  <SCORE.SYSTEM.SOLV>
0

>  <SCORE.SYSTEM.norm>
0

>  <SCORE.heavy>
49

>  <SCORE.norm>
-0.259624

>  <RMSD>
10.995

$$$$
ligand
 OpenBabel11021811513D
libRbt.so/2013.1/901 2013/11/27
 49 52  0  0  0  0  0  0  0  0999 V2000
   26.6796   16.2036   10.6826 C   0  0  2  0  0  0  0  0  0  0  0  0
   25.6868   15.2226   10.7466 O   0  0  0  0  0  0  0  0  0  0  0  0
   27.2283   16.4988   12.1279 C   0  0  2  0  0  0  0  0  0  0  0  0
   27.7890   15.2152   12.7199 N   0  0  0  0  0  0  0  0  0  0  0  0
   25.2300    9.5108   10.3949 O   0  0  0  0  0  0  0  0  0  0  0  0
   26.1103   17.0897   13.0183 C   0  0  2  0  0  0  0  0  0  0  0  0
   28.3094    5.4795   12.4223 N   0  0  0  0  0  0  0  0  0  0  0  0
   25.5464   18.3737   12.3900 C   0  0  2  0  0  0  0  0  0  0  0  0
   24.9843   18.1155   10.9282 C   0  0  2  0  0  0  0  0  0  0  0  0
   26.1055   17.4833   10.1015 O   0  0  0  0  0  0  0  0  0  0  0  0
   24.4660   19.4305   10.2772 C   0  0  0  0  0  0  0  0  0  0  0  0
   24.4834   19.4134    8.8582 N   0  0  0  0  0  0  0  0  0  0  0  0
   27.2345   11.2585   11.5789 C   0  0  2  0  0  0  0  0  0  0  0  0
   27.2847    9.7704   11.6789 N   0  0  0  0  0  0  0  0  0  0  0  0
   25.8180   11.7216   12.1750 C   0  0  0  0  0  0  0  0  0  0  0  0
   25.6902   13.2900   12.1304 C   0  0  2  0  0  0  0  0  0  0  0  0
   24.3877   13.7257   12.6555 N   0  0  0  0  0  0  0  0  0  0  0  0
   25.8193   13.7952   10.6795 C   0  0  2  0  0  0  0  0  0  0  0  0
   27.2055   13.3513   10.0596 C   0  0  2  0  0  0  0  0  0  0  0  0
   27.2339   13.8859    8.6839 O   0  0  0  0  0  0  0  0  0  0  0  0
   27.2833   11.7403   10.0570 C   0  0  1  0  0  0  0  0  0  0  0  0
   28.5055   11.3699    9.5013 O   0  0  0  0  0  0  0  0  0  0  0  0
   26.2289   14.3045    7.9928 C   0  0  1  0  0  0  0  0  0  0  0  0
   26.5533   15.3747    6.9092 C   0  0  2  0  0  0  0  0  0  0  0  0
   26.4102   16.6336    7.4877 O   0  0  0  0  0  0  0  0  0  0  0  0
   25.4556   15.0788    5.9735 C   0  0  1  0  0  0  0  0  0  0  0  0
   25.2638   13.5315    5.9231 C   0  0  2  0  0  0  0  0  0  0  0  0
   25.4897   13.2572    7.2841 O   0  0  0  0  0  0  0  0  0  0  0  0
   26.0690   12.7363    4.8944 C   0  0  0  0  0  0  0  0  0  0  0  0
   27.4318   13.0065    5.1633 O   0  0  0  0  0  0  0  0  0  0  0  0
   23.7422   15.4007    7.7009 C   0  0  2  0  0  0  0  0  0  0  0  0
   24.2480   15.7962    6.4963 O   0  0  0  0  0  0  0  0  0  0  0  0
   22.6862   14.3455    7.5504 C   0  0  1  0  0  0  0  0  0  0  0  0
   21.9226   17.3198   12.1711 N   0  0  0  0  0  0  0  0  0  0  0  0
   25.3004    6.7149   10.5814 O   0  0  0  0  0  0  0  0  0  0  0  0
   22.1116   13.9738    8.9723 C   0  0  2  0  0  0  0  0  0  0  0  0
   21.5298   15.2008    9.7565 C   0  0  1  0  0  0  0  0  0  0  0  0
   22.5658   16.1971    9.8970 C   0  0  1  0  0  0  0  0  0  0  0  0
   23.1358   16.5720    8.5422 O   0  0  0  0  0  0  0  0  0  0  0  0
   22.0059   17.4822   10.6507 C   0  0  0  0  0  0  0  0  0  0  0  0
   21.6238   14.8344    6.7639 N   0  0  0  0  0  0  0  0  0  0  0  0
   26.5430   17.3329   14.0478 O   0  0  0  0  0  0  0  0  0  0  0  0
   27.5364    7.1131   10.6216 C   0  0  0  0  0  0  0  0  0  0  0  0
   20.6672   15.6454    9.1435 O   0  0  0  0  0  0  0  0  0  0  0  0
   22.9731   13.5531    9.6079 O   0  0  0  0  0  0  0  0  0  0  0  0
   26.1749    9.0076   11.0190 C   0  0  0  0  0  0  0  0  0  0  0  0
   27.9566    5.8974   11.1132 C   0  0  0  0  0  0  0  0  0  0  0  0
   26.3761    7.4148   11.2030 C   0  0  1  0  0  0  0  0  0  0  0  0
   26.5561   19.3488   12.3050 F   0  0  0  0  0  0  0  0  0  0  0  0
  1  2  1  1  0  0  0
  1 10  1  0  0  0  0
  1  3  1  0  0  0  0
  3  4  1  1  0  0  0
  3  6  1  0  0  0  0
  5 46  2  0  0  0  0
  6 42  1  1  0  0  0
  6  8  1  0  0  0  0
  7 47  1  0  0  0  0
  8  9  1  0  0  0  0
  8 49  1  6  0  0  0
  9 10  1  0  0  0  0
  9 11  1  6  0  0  0
 11 12  1  0  0  0  0
 13 14  1  6  0  0  0
 13 15  1  0  0  0  0
 13 21  1  0  0  0  0
 14 46  1  0  0  0  0
 15 16  1  0  0  0  0
 16 17  1  6  0  0  0
 16 18  1  0  0  0  0
 18  2  1  1  0  0  0
 18 19  1  0  0  0  0
 19 20  1  6  0  0  0
 19 21  1  0  0  0  0
 21 22  1  1  0  0  0
 23 20  1  6  0  0  0
 23 24  1  0  0  0  0
 23 28  1  0  0  0  0
 24 25  1  1  0  0  0
 24 26  1  0  0  0  0
 26 27  1  0  0  0  0
 26 32  1  1  0  0  0
 27 28  1  0  0  0  0
 27 29  1  6  0  0  0
 29 30  1  0  0  0  0
 31 32  1  6  0  0  0
 31 33  1  0  0  0  0
 31 39  1  0  0  0  0
 33 36  1  0  0  0  0
 33 41  1  6  0  0  0
 34 40  1  0  0  0  0
 35 48  1  0  0  0  0
 36 37  1  0  0  0  0
 36 45  1  1  0  0  0
 37 38  1  0  0  0  0
 37 44  1  6  0  0  0
 38 39  1  0  0  0  0
 38 40  1  6  0  0  0
 43 47  1  0  0  0  0
 46 48  1  0  0  0  0
 48 43  1  6  0  0  0
M  END
>  <CHROM.1>
-88.79007492,102.36421659,154.84967679,56.11535652,-17.05034845,152.87063268
-64.97890865,58.15413124,-91.36856269,79.42665847,-62.69670982,-79.78156651
-1.61812971,25.38739754,14.01760019,9.85728825,-2.30751114,1.13486937,-2.53171254

>  <Name>
ligand

>  <RI>
0

>  <Rbt.Current_Directory>
/home/itssahil/PROJECTS/Mol_Feturizer/New_Systems/rnas/4PDQ

>  <Rbt.Executable>
rbdock ($Id: //depot/dev/client3/rdock/2013.1/src/exe/rbdock.cxx#4 $)

>  <Rbt.Library>
libRbt.so (2013.1, Build901 2013/11/27)

>  <Rbt.Parameter_File>
/export/apps/rDock/src/rDock_2013.1_src/data/scripts/dock_solv.prm

>  <Rbt.Receptor>
prm/blind_docking_100.prm

>  <SCORE>
13.3963

>  <SCORE.INTER>
6.81706

>  <SCORE.INTER.CONST>
1

>  <SCORE.INTER.POLAR>
0

>  <SCORE.INTER.ROT>
13

>  <SCORE.INTER.SOLV>
35.3524

>  <SCORE.INTER.VDW>
-19.5061

>  <SCORE.INTER.norm>
0.139124

>  <SCORE.INTRA>
5.61414

>  <SCORE.INTRA.DIHEDRAL>
-7.11928

>  <SCORE.INTRA.DIHEDRAL.0>
34.5115

>  <SCORE.INTRA.POLAR>
0

>  <SCORE.INTRA.POLAR.0>
0

>  <SCORE.INTRA.REPUL>
0.250751

>  <SCORE.INTRA.REPUL.0>
0

>  <SCORE.INTRA.SOLV>
10.7314

>  <SCORE.INTRA.SOLV.lig_0>
-122.812

>  <SCORE.INTRA.VDW>
2.55432

>  <SCORE.INTRA.VDW.0>
-7.46208

>  <SCORE.INTRA.norm>
0.114574

>  <SCORE.RESTR>
0.965105

>  <SCORE.RESTR.CAVITY>
0.965105

>  <SCORE.RESTR.norm>
0.019696

>  <SCORE.SYSTEM>
0

>  <SCORE.SYSTEM.CONST>
0

>  <SCORE.SYSTEM.DIHEDRAL>
0

>  <SCORE.SYSTEM.SOLV>
0

>  <SCORE.SYSTEM.norm>
0

>  <SCORE.heavy>
49

>  <SCORE.norm>
0.273394

>  <RMSD>
10.998

$$$$
ligand
 OpenBabel11021811513D
libRbt.so/2013.1/901 2013/11/27
 49 52  0  0  0  0  0  0  0  0999 V2000
   27.1563   16.1662   11.1464 C   0  0  2  0  0  0  0  0  0  0  0  0
   26.6769   15.0602   11.8527 O   0  0  0  0  0  0  0  0  0  0  0  0
   27.6756   17.2563   12.1559 C   0  0  2  0  0  0  0  0  0  0  0  0
   28.7788   16.6563   13.0134 N   0  0  0  0  0  0  0  0  0  0  0  0
   26.7027    8.7766   13.2053 O   0  0  0  0  0  0  0  0  0  0  0  0
   26.5103   17.7850   13.0244 C   0  0  2  0  0  0  0  0  0  0  0  0
   28.7704    6.2288   10.0981 N   0  0  0  0  0  0  0  0  0  0  0  0
   25.4003   18.3677   12.1356 C   0  0  2  0  0  0  0  0  0  0  0  0
   24.8517   17.2959   11.1012 C   0  0  2  0  0  0  0  0  0  0  0  0
   26.0438   16.7637   10.3037 O   0  0  0  0  0  0  0  0  0  0  0  0
   23.7676   17.9087   10.1679 C   0  0  0  0  0  0  0  0  0  0  0  0
   22.7288   18.5828   10.8610 N   0  0  0  0  0  0  0  0  0  0  0  0
   27.1547   10.8053   11.1669 C   0  0  2  0  0  0  0  0  0  0  0  0
   26.7960    9.3919   10.8493 N   0  0  0  0  0  0  0  0  0  0  0  0
   26.0600   11.3444   12.2097 C   0  0  0  0  0  0  0  0  0  0  0  0
   26.3784   12.8304   12.6203 C   0  0  2  0  0  0  0  0  0  0  0  0
   25.3705   13.3427   13.5604 N   0  0  0  0  0  0  0  0  0  0  0  0
   26.3830   13.7392   11.3749 C   0  0  2  0  0  0  0  0  0  0  0  0
   27.4503   13.2320   10.3230 C   0  0  2  0  0  0  0  0  0  0  0  0
   27.3821   14.1653    9.1812 O   0  0  0  0  0  0  0  0  0  0  0  0
   27.0643   11.7329    9.8701 C   0  0  1  0  0  0  0  0  0  0  0  0
   28.0097   11.3081    8.9397 O   0  0  0  0  0  0  0  0  0  0  0  0
   26.3802   14.3538    8.3915 C   0  0  1  0  0  0  0  0  0  0  0  0
   26.6250   15.3433    7.2144 C   0  0  2  0  0  0  0  0  0  0  0  0
   26.2605   16.6190    7.6383 O   0  0  0  0  0  0  0  0  0  0  0  0
   25.6524   14.7901    6.2573 C   0  0  1  0  0  0  0  0  0  0  0  0
   25.6895   13.2348    6.3707 C   0  0  2  0  0  0  0  0  0  0  0  0
   25.8530   13.1394    7.7645 O   0  0  0  0  0  0  0  0  0  0  0  0
   26.6736   12.4686    5.4855 C   0  0  0  0  0  0  0  0  0  0  0  0
   26.4472   12.9160    4.1622 O   0  0  0  0  0  0  0  0  0  0  0  0
   23.5453   14.6713    7.5100 C   0  0  2  0  0  0  0  0  0  0  0  0
   24.3193   15.3670    6.6266 O   0  0  0  0  0  0  0  0  0  0  0  0
   22.0856   14.9747    7.3418 C   0  0  1  0  0  0  0  0  0  0  0  0
   23.1264   13.5006   12.5675 N   0  0  0  0  0  0  0  0  0  0  0  0
   26.2349    6.9267   10.0825 O   0  0  0  0  0  0  0  0  0  0  0  0
   21.2577   14.1789    8.4241 C   0  0  2  0  0  0  0  0  0  0  0  0
   21.6971   14.4794    9.8990 C   0  0  1  0  0  0  0  0  0  0  0  0
   23.1010   14.1709   10.0385 C   0  0  1  0  0  0  0  0  0  0  0  0
   23.9201   14.9242    9.0076 O   0  0  0  0  0  0  0  0  0  0  0  0
   23.6020   14.5032   11.5121 C   0  0  0  0  0  0  0  0  0  0  0  0
   21.8528   16.3508    7.5384 N   0  0  0  0  0  0  0  0  0  0  0  0
   26.9042   18.6025   13.7192 O   0  0  0  0  0  0  0  0  0  0  0  0
   27.1078    6.1526   12.0316 C   0  0  0  0  0  0  0  0  0  0  0  0
   21.5405   15.5983   10.1019 O   0  0  0  0  0  0  0  0  0  0  0  0
   21.4286   13.0547    8.2504 O   0  0  0  0  0  0  0  0  0  0  0  0
   26.5993    8.4638   12.0106 C   0  0  0  0  0  0  0  0  0  0  0  0
   28.3203    6.4089   11.4315 C   0  0  0  0  0  0  0  0  0  0  0  0
   26.2045    6.9798   11.5072 C   0  0  1  0  0  0  0  0  0  0  0  0
   25.8952   19.4648   11.4085 F   0  0  0  0  0  0  0  0  0  0  0  0
  1  2  1  1  0  0  0
  1 10  1  0  0  0  0
  1  3  1  0  0  0  0
  3  4  1  1  0  0  0
  3  6  1  0  0  0  0
  5 46  2  0  0  0  0
  6 42  1  1  0  0  0
  6  8  1  0  0  0  0
  7 47  1  0  0  0  0
  8  9  1  0  0  0  0
  8 49  1  6  0  0  0
  9 10  1  0  0  0  0
  9 11  1  6  0  0  0
 11 12  1  0  0  0  0
 13 14  1  6  0  0  0
 13 15  1  0  0  0  0
 13 21  1  0  0  0  0
 14 46  1  0  0  0  0
 15 16  1  0  0  0  0
 16 17  1  1  0  0  0
 16 18  1  0  0  0  0
 18  2  1  1  0  0  0
 18 19  1  0  0  0  0
 19 20  1  6  0  0  0
 19 21  1  0  0  0  0
 21 22  1  6  0  0  0
 23 20  1  6  0  0  0
 23 24  1  0  0  0  0
 23 28  1  0  0  0  0
 24 25  1  1  0  0  0
 24 26  1  0  0  0  0
 26 27  1  0  0  0  0
 26 32  1  1  0  0  0
 27 28  1  0  0  0  0
 27 29  1  6  0  0  0
 29 30  1  0  0  0  0
 31 32  1  6  0  0  0
 31 33  1  0  0  0  0
 31 39  1  0  0  0  0
 33 36  1  0  0  0  0
 33 41  1  1  0  0  0
 34 40  1  0  0  0  0
 35 48  1  0  0  0  0
 36 37  1  0  0  0  0
 36 45  1  6  0  0  0
 37 38  1  0  0  0  0
 37 44  1  6  0  0  0
 38 39  1  0  0  0  0
 38 40  1  1  0  0  0
 43 47  1  0  0  0  0
 46 48  1  0  0  0  0
 48 43  1  1  0  0  0
M  END
>  <CHROM.1>
-165.06821444,160.40092729,-51.16960166,-52.66126881,-64.27738496,-176.38236620
-90.88522709,-52.12075593,-154.57729442,73.93408811,-66.57605731,51.14511992
-177.07920900,25.54316620,13.72385451,10.05059432,-2.18560990,1.08537839
-2.66388838

>  <Name>
ligand

>  <RI>
0

>  <Rbt.Current_Directory>
/home/itssahil/PROJECTS/Mol_Feturizer/New_Systems/rnas/4PDQ

>  <Rbt.Executable>
rbdock ($Id: //depot/dev/client3/rdock/2013.1/src/exe/rbdock.cxx#4 $)

>  <Rbt.Library>
libRbt.so (2013.1, Build901 2013/11/27)

>  <Rbt.Parameter_File>
/export/apps/rDock/src/rDock_2013.1_src/data/scripts/dock_solv.prm

>  <Rbt.Receptor>
prm/blind_docking_100.prm

>  <SCORE>
6.7554

>  <SCORE.INTER>
2.17688

>  <SCORE.INTER.CONST>
1

>  <SCORE.INTER.POLAR>
0

>  <SCORE.INTER.ROT>
13

>  <SCORE.INTER.SOLV>
38.0135

>  <SCORE.INTER.VDW>
-23.4866

>  <SCORE.INTER.norm>
0.0444262

>  <SCORE.INTRA>
2.40554

>  <SCORE.INTRA.DIHEDRAL>
-20.927

>  <SCORE.INTRA.DIHEDRAL.0>
34.5115

>  <SCORE.INTRA.POLAR>
0

>  <SCORE.INTRA.POLAR.0>
0

>  <SCORE.INTRA.REPUL>
0

>  <SCORE.INTRA.REPUL.0>
0

>  <SCORE.INTRA.SOLV>
9.78611

>  <SCORE.INTRA.SOLV.lig_0>
-122.812

>  <SCORE.INTRA.VDW>
7.97601

>  <SCORE.INTRA.VDW.0>
-7.46208

>  <SCORE.INTRA.norm>
0.0490927

>  <SCORE.RESTR>
2.17297

>  <SCORE.RESTR.CAVITY>
2.17297

>  <SCORE.RESTR.norm>
0.0443463

>  <SCORE.SYSTEM>
0

>  <SCORE.SYSTEM.CONST>
0

>  <SCORE.SYSTEM.DIHEDRAL>
0

>  <SCORE.SYSTEM.SOLV>
0

>  <SCORE.SYSTEM.norm>
0

>  <SCORE.heavy>
49

>  <SCORE.norm>
0.137865

>  <RMSD>
11.000

$$$$
ligand
 OpenBabel11021811513D
libRbt.so/2013.1/901 2013/11/27
 49 52  0  0  0  0  0  0  0  0999 V2000
   27.5624   10.0336   11.3928 C   0  0  2  0  0  0  0  0  0  0  0  0
   26.6318   11.0741   11.3349 O   0  0  0  0  0  0  0  0  0  0  0  0
   26.8671    8.7289   11.9325 C   0  0  2  0  0  0  0  0  0  0  0  0
   25.7160    8.3595   11.0101 N   0  0  0  0  0  0  0  0  0  0  0  0
   28.0104   15.9495    7.3938 O   0  0  0  0  0  0  0  0  0  0  0  0
   26.3808    8.9393   13.3855 C   0  0  2  0  0  0  0  0  0  0  0  0
   26.1309   18.8942    4.9964 N   0  0  0  0  0  0  0  0  0  0  0  0
   27.5571    9.3307   14.2936 C   0  0  2  0  0  0  0  0  0  0  0  0
   28.2858   10.6437   13.7791 C   0  0  2  0  0  0  0  0  0  0  0  0
   28.7002   10.4086   12.3254 O   0  0  0  0  0  0  0  0  0  0  0  0
   29.5093   11.0023   14.6713 C   0  0  0  0  0  0  0  0  0  0  0  0
   29.2506   10.9092   16.0636 N   0  0  0  0  0  0  0  0  0  0  0  0
   27.1855   13.1636    7.5759 C   0  0  2  0  0  0  0  0  0  0  0  0
   26.8798   14.0324    6.4016 N   0  0  0  0  0  0  0  0  0  0  0  0
   25.9135   12.2101    7.7981 C   0  0  0  0  0  0  0  0  0  0  0  0
   26.1623   11.2371    9.0104 C   0  0  2  0  0  0  0  0  0  0  0  0
   24.9954   10.3717    9.2370 N   0  0  0  0  0  0  0  0  0  0  0  0
   26.4222   12.0441   10.2981 C   0  0  2  0  0  0  0  0  0  0  0  0
   27.6694   12.9993   10.1111 C   0  0  2  0  0  0  0  0  0  0  0  0
   27.8378   13.7157   11.3909 O   0  0  0  0  0  0  0  0  0  0  0  0
   27.3625   14.0278    8.9072 C   0  0  1  0  0  0  0  0  0  0  0  0
   28.4672   14.8636    8.7638 O   0  0  0  0  0  0  0  0  0  0  0  0
   27.3022   14.8393   11.7278 C   0  0  1  0  0  0  0  0  0  0  0  0
   26.5115   14.8351   13.0693 C   0  0  2  0  0  0  0  0  0  0  0  0
   25.1827   14.5272   12.7876 O   0  0  0  0  0  0  0  0  0  0  0  0
   26.6768   16.2542   13.4254 C   0  0  1  0  0  0  0  0  0  0  0  0
   28.1254   16.6864   13.0405 C   0  0  2  0  0  0  0  0  0  0  0  0
   28.2397   15.9589   11.8421 O   0  0  0  0  0  0  0  0  0  0  0  0
   29.2315   16.5172   14.0831 C   0  0  0  0  0  0  0  0  0  0  0  0
   28.8697   15.3952   14.8660 O   0  0  0  0  0  0  0  0  0  0  0  0
   25.4193   16.6715   11.3595 C   0  0  2  0  0  0  0  0  0  0  0  0
   25.6261   17.0068   12.6665 O   0  0  0  0  0  0  0  0  0  0  0  0
   25.3321   17.8797   10.4741 C   0  0  1  0  0  0  0  0  0  0  0  0
   22.5096   13.3422   10.5960 N   0  0  0  0  0  0  0  0  0  0  0  0
   27.3874   15.5164    3.9672 O   0  0  0  0  0  0  0  0  0  0  0  0
   25.0423   17.4223    8.9919 C   0  0  2  0  0  0  0  0  0  0  0  0
   23.7423   16.5583    8.8426 C   0  0  1  0  0  0  0  0  0  0  0  0
   23.8539   15.3982    9.6954 C   0  0  1  0  0  0  0  0  0  0  0  0
   24.1333   15.8113   11.1280 O   0  0  0  0  0  0  0  0  0  0  0  0
   22.5343   14.5126    9.6089 C   0  0  0  0  0  0  0  0  0  0  0  0
   24.2711   18.7083   10.8912 N   0  0  0  0  0  0  0  0  0  0  0  0
   25.9172    7.9671   13.7680 O   0  0  0  0  0  0  0  0  0  0  0  0
   25.6487   16.3930    5.1370 C   0  0  0  0  0  0  0  0  0  0  0  0
   22.8476   17.1889    9.1881 O   0  0  0  0  0  0  0  0  0  0  0  0
   25.9189   16.7646    8.6422 O   0  0  0  0  0  0  0  0  0  0  0  0
   27.3696   15.4485    6.4588 C   0  0  0  0  0  0  0  0  0  0  0  0
   25.3535   17.7131    4.8798 C   0  0  0  0  0  0  0  0  0  0  0  0
   26.9737   16.2543    5.1151 C   0  0  1  0  0  0  0  0  0  0  0  0
   28.5023    8.2902   14.3283 F   0  0  0  0  0  0  0  0  0  0  0  0
  1  2  1  1  0  0  0
  1 10  1  0  0  0  0
  1  3  1  0  0  0  0
  3  4  1  6  0  0  0
  3  6  1  0  0  0  0
  5 46  2  0  0  0  0
  6 42  1  1  0  0  0
  6  8  1  0  0  0  0
  7 47  1  0  0  0  0
  8  9  1  0  0  0  0
  8 49  1  6  0  0  0
  9 10  1  0  0  0  0
  9 11  1  1  0  0  0
 11 12  1  0  0  0  0
 13 14  1  6  0  0  0
 13 15  1  0  0  0  0
 13 21  1  0  0  0  0
 14 46  1  0  0  0  0
 15 16  1  0  0  0  0
 16 17  1  1  0  0  0
 16 18  1  0  0  0  0
 18  2  1  1  0  0  0
 18 19  1  0  0  0  0
 19 20  1  1  0  0  0
 19 21  1  0  0  0  0
 21 22  1  6  0  0  0
 23 20  1  1  0  0  0
 23 24  1  0  0  0  0
 23 28  1  0  0  0  0
 24 25  1  6  0  0  0
 24 26  1  0  0  0  0
 26 27  1  0  0  0  0
 26 32  1  6  0  0  0
 27 28  1  0  0  0  0
 27 29  1  1  0  0  0
 29 30  1  0  0  0  0
 31 32  1  1  0  0  0
 31 33  1  0  0  0  0
 31 39  1  0  0  0  0
 33 36  1  0  0  0  0
 33 41  1  1  0  0  0
 34 40  1  0  0  0  0
 35 48  1  0  0  0  0
 36 37  1  0  0  0  0
 36 45  1  1  0  0  0
 37 38  1  0  0  0  0
 37 44  1  1  0  0  0
 38 39  1  0  0  0  0
 38 40  1  1  0  0  0
 43 47  1  0  0  0  0
 46 48  1  0  0  0  0
 48 43  1  6  0  0  0
M  END
>  <CHROM.1>
-136.59269396,56.14384397,-44.83718857,143.13566089,-89.91716736,126.35877625
-43.24914985,30.89647686,-133.90615191,-173.83346182,-20.91035592,-109.57726964
127.63137925,26.50948920,13.91701019,10.50132893,0.21017569,1.35294759,-2.53845425

>  <Name>
ligand

>  <RI>
0

>  <Rbt.Current_Directory>
/home/itssahil/PROJECTS/Mol_Feturizer/New_Systems/rnas/4PDQ

>  <Rbt.Executable>
rbdock ($Id: //depot/dev/client3/rdock/2013.1/src/exe/rbdock.cxx#4 $)

>  <Rbt.Library>
libRbt.so (2013.1, Build901 2013/11/27)

>  <Rbt.Parameter_File>
/export/apps/rDock/src/rDock_2013.1_src/data/scripts/dock_solv.prm

>  <Rbt.Receptor>
prm/blind_docking_80.prm

>  <SCORE>
46.916

>  <SCORE.INTER>
13.6745

>  <SCORE.INTER.CONST>
1

>  <SCORE.INTER.POLAR>
0

>  <SCORE.INTER.ROT>
13

>  <SCORE.INTER.SOLV>
32.7464

>  <SCORE.INTER.VDW>
-14.0658

>  <SCORE.INTER.norm>
0.279072

>  <SCORE.INTRA>
28.9688

>  <SCORE.INTRA.DIHEDRAL>
3.55371

>  <SCORE.INTRA.DIHEDRAL.0>
34.5115

>  <SCORE.INTRA.POLAR>
0

>  <SCORE.INTRA.POLAR.0>
0

>  <SCORE.INTRA.REPUL>
0

>  <SCORE.INTRA.REPUL.0>
0

>  <SCORE.INTRA.SOLV>
6.11421

>  <SCORE.INTRA.SOLV.lig_0>
-122.812

>  <SCORE.INTRA.VDW>
24.1348

>  <SCORE.INTRA.VDW.0>
-7.46208

>  <SCORE.INTRA.norm>
0.591199

>  <SCORE.RESTR>
4.27276

>  <SCORE.RESTR.CAVITY>
4.27276

>  <SCORE.RESTR.norm>
0.0871991

>  <SCORE.SYSTEM>
0

>  <SCORE.SYSTEM.CONST>
0

>  <SCORE.SYSTEM.DIHEDRAL>
0

>  <SCORE.SYSTEM.SOLV>
0

>  <SCORE.SYSTEM.norm>
0

>  <SCORE.heavy>
49

>  <SCORE.norm>
0.95747

>  <RMSD>
11.011

$$$$
ligand
 OpenBabel11021811513D
libRbt.so/2013.1/901 2013/11/27
 49 52  0  0  0  0  0  0  0  0999 V2000
   27.5960   15.1333    6.8190 C   0  0  2  0  0  0  0  0  0  0  0  0
   27.2245   15.5464    8.1009 O   0  0  0  0  0  0  0  0  0  0  0  0
   27.0731   16.1688    5.7552 C   0  0  2  0  0  0  0  0  0  0  0  0
   27.6600   17.5378    6.0618 N   0  0  0  0  0  0  0  0  0  0  0  0
   26.7677    9.3060   10.4205 O   0  0  0  0  0  0  0  0  0  0  0  0
   25.5270   16.2052    5.7536 C   0  0  2  0  0  0  0  0  0  0  0  0
   25.5586   10.9326   14.9278 N   0  0  0  0  0  0  0  0  0  0  0  0
   24.9578   14.8080    5.4615 C   0  0  2  0  0  0  0  0  0  0  0  0
   25.4654   13.7342    6.5146 C   0  0  2  0  0  0  0  0  0  0  0  0
   26.9948   13.7718    6.5197 O   0  0  0  0  0  0  0  0  0  0  0  0
   24.9299   12.3118    6.1802 C   0  0  0  0  0  0  0  0  0  0  0  0
   25.4919   11.7492    5.0048 N   0  0  0  0  0  0  0  0  0  0  0  0
   25.8815   12.0775   10.3293 C   0  0  2  0  0  0  0  0  0  0  0  0
   25.6267   11.1748   11.4900 N   0  0  0  0  0  0  0  0  0  0  0  0
   27.3963   12.5923   10.4586 C   0  0  0  0  0  0  0  0  0  0  0  0
   27.7594   13.5373    9.2531 C   0  0  2  0  0  0  0  0  0  0  0  0
   29.1391   14.0319    9.3709 N   0  0  0  0  0  0  0  0  0  0  0  0
   26.8116   14.7529    9.2233 C   0  0  2  0  0  0  0  0  0  0  0  0
   25.3071   14.2795    9.1005 C   0  0  2  0  0  0  0  0  0  0  0  0
   24.4877   15.5072    9.0726 O   0  0  0  0  0  0  0  0  0  0  0  0
   24.9415   13.3676   10.3796 C   0  0  1  0  0  0  0  0  0  0  0  0
   23.6130   12.9680   10.2570 O   0  0  0  0  0  0  0  0  0  0  0  0
   24.6381   16.5576    9.8053 C   0  0  1  0  0  0  0  0  0  0  0  0
   24.0176   16.4807   11.2314 C   0  0  2  0  0  0  0  0  0  0  0  0
   22.7160   16.9718   11.1642 O   0  0  0  0  0  0  0  0  0  0  0  0
   24.9195   17.4234   11.9139 C   0  0  1  0  0  0  0  0  0  0  0  0
   26.3620   17.2013   11.3630 C   0  0  2  0  0  0  0  0  0  0  0  0
   26.0285   16.9672   10.0168 O   0  0  0  0  0  0  0  0  0  0  0  0
   27.2532   16.1746   12.0635 C   0  0  0  0  0  0  0  0  0  0  0  0
   28.4549   16.1190   11.3181 O   0  0  0  0  0  0  0  0  0  0  0  0
   24.1652   19.1327   10.3224 C   0  0  2  0  0  0  0  0  0  0  0  0
   24.3938   18.7970   11.6257 O   0  0  0  0  0  0  0  0  0  0  0  0
   25.1857   20.1017    9.8020 C   0  0  1  0  0  0  0  0  0  0  0  0
   19.8569   19.6887    8.8171 N   0  0  0  0  0  0  0  0  0  0  0  0
   25.7178    7.5369   12.4049 O   0  0  0  0  0  0  0  0  0  0  0  0
   24.8322   20.4841    8.3124 C   0  0  2  0  0  0  0  0  0  0  0  0
   23.3933   21.0833    8.1409 C   0  0  1  0  0  0  0  0  0  0  0  0
   22.4296   20.1300    8.6389 C   0  0  1  0  0  0  0  0  0  0  0  0
   22.7478   19.7452   10.0713 O   0  0  0  0  0  0  0  0  0  0  0  0
   20.9543   20.7160    8.5247 C   0  0  0  0  0  0  0  0  0  0  0  0
   25.1675   21.2819   10.5722 N   0  0  0  0  0  0  0  0  0  0  0  0
   25.1720   16.9325    4.9465 O   0  0  0  0  0  0  0  0  0  0  0  0
   26.7956    9.1579   13.5756 C   0  0  0  0  0  0  0  0  0  0  0  0
   23.3246   22.0430    8.7668 O   0  0  0  0  0  0  0  0  0  0  0  0
   24.8692   19.5251    7.6782 O   0  0  0  0  0  0  0  0  0  0  0  0
   26.1435    9.7710   11.3848 C   0  0  0  0  0  0  0  0  0  0  0  0
   26.6025   10.4060   14.1243 C   0  0  0  0  0  0  0  0  0  0  0  0
   25.8020    8.9253   12.7188 C   0  0  1  0  0  0  0  0  0  0  0  0
   25.3556   14.3869    4.1802 F   0  0  0  0  0  0  0  0  0  0  0  0
  1  2  1  1  0  0  0
  1 10  1  0  0  0  0
  1  3  1  0  0  0  0
  3  4  1  1  0  0  0
  3  6  1  0  0  0  0
  5 46  2  0  0  0  0
  6 42  1  6  0  0  0
  6  8  1  0  0  0  0
  7 47  1  0  0  0  0
  8  9  1  0  0  0  0
  8 49  1  6  0  0  0
  9 10  1  0  0  0  0
  9 11  1  6  0  0  0
 11 12  1  0  0  0  0
 13 14  1  1  0  0  0
 13 15  1  0  0  0  0
 13 21  1  0  0  0  0
 14 46  1  0  0  0  0
 15 16  1  0  0  0  0
 16 17  1  1  0  0  0
 16 18  1  0  0  0  0
 18  2  1  6  0  0  0
 18 19  1  0  0  0  0
 19 20  1  1  0  0  0
 19 21  1  0  0  0  0
 21 22  1  6  0  0  0
 23 20  1  1  0  0  0
 23 24  1  0  0  0  0
 23 28  1  0  0  0  0
 24 25  1  6  0  0  0
 24 26  1  0  0  0  0
 26 27  1  0  0  0  0
 26 32  1  6  0  0  0
 27 28  1  0  0  0  0
 27 29  1  1  0  0  0
 29 30  1  0  0  0  0
 31 32  1  1  0  0  0
 31 33  1  0  0  0  0
 31 39  1  0  0  0  0
 33 36  1  0  0  0  0
 33 41  1  1  0  0  0
 34 40  1  0  0  0  0
 35 48  1  0  0  0  0
 36 37  1  0  0  0  0
 36 45  1  6  0  0  0
 37 38  1  0  0  0  0
 37 44  1  1  0  0  0
 38 39  1  0  0  0  0
 38 40  1  1  0  0  0
 43 47  1  0  0  0  0
 46 48  1  0  0  0  0
 48 43  1  1  0  0  0
M  END
>  <CHROM.1>
143.06905080,42.33003195,69.19435166,-79.74567776,-42.22224921,-82.15178685
-52.17443899,176.52153955,-107.34281216,170.60696080,62.66571022,-163.44246074
-27.55732657,25.36820525,15.41958811,9.35625421,-0.70343958,1.22787752,-1.12223079

>  <Name>
ligand

>  <RI>
0

>  <Rbt.Current_Directory>
/home/itssahil/PROJECTS/Mol_Feturizer/New_Systems/rnas/4PDQ

>  <Rbt.Executable>
rbdock ($Id: //depot/dev/client3/rdock/2013.1/src/exe/rbdock.cxx#4 $)

>  <Rbt.Library>
libRbt.so (2013.1, Build901 2013/11/27)

>  <Rbt.Parameter_File>
/export/apps/rDock/src/rDock_2013.1_src/data/scripts/dock_solv.prm

>  <Rbt.Receptor>
prm/blind_docking_40.prm

>  <SCORE>
14.1743

>  <SCORE.INTER>
6.98096

>  <SCORE.INTER.CONST>
1

>  <SCORE.INTER.POLAR>
0

>  <SCORE.INTER.ROT>
13

>  <SCORE.INTER.SOLV>
33.6965

>  <SCORE.INTER.VDW>
-18.8449

>  <SCORE.INTER.norm>
0.142469

>  <SCORE.INTRA>
4.47344

>  <SCORE.INTRA.DIHEDRAL>
-14.4229

>  <SCORE.INTRA.DIHEDRAL.0>
34.5115

>  <SCORE.INTRA.POLAR>
0

>  <SCORE.INTRA.POLAR.0>
0

>  <SCORE.INTRA.REPUL>
0.16276

>  <SCORE.INTRA.REPUL.0>
0

>  <SCORE.INTRA.SOLV>
3.11899

>  <SCORE.INTRA.SOLV.lig_0>
-122.812

>  <SCORE.INTRA.VDW>
9.3116

>  <SCORE.INTRA.VDW.0>
-7.46208

>  <SCORE.INTRA.norm>
0.0912946

>  <SCORE.RESTR>
2.71986

>  <SCORE.RESTR.CAVITY>
2.71986

>  <SCORE.RESTR.norm>
0.0555074

>  <SCORE.SYSTEM>
0

>  <SCORE.SYSTEM.CONST>
0

>  <SCORE.SYSTEM.DIHEDRAL>
0

>  <SCORE.SYSTEM.SOLV>
0

>  <SCORE.SYSTEM.norm>
0

>  <SCORE.heavy>
49

>  <SCORE.norm>
0.289271

>  <RMSD>
11.023

$$$$
ligand
 OpenBabel11021811513D
libRbt.so/2013.1/901 2013/11/27
 49 52  0  0  0  0  0  0  0  0999 V2000
   26.9730    8.7307    9.9695 C   0  0  2  0  0  0  0  0  0  0  0  0
   27.9248    9.6914   10.3206 O   0  0  0  0  0  0  0  0  0  0  0  0
   25.8597    8.6560   11.0795 C   0  0  2  0  0  0  0  0  0  0  0  0
   25.2063   10.0216   11.2229 N   0  0  0  0  0  0  0  0  0  0  0  0
   27.9933   15.3207   11.5752 O   0  0  0  0  0  0  0  0  0  0  0  0
   26.4660    8.1770   12.4192 C   0  0  2  0  0  0  0  0  0  0  0  0
   25.5636   19.9846   11.0605 N   0  0  0  0  0  0  0  0  0  0  0  0
   27.1371    6.8056   12.2446 C   0  0  2  0  0  0  0  0  0  0  0  0
   28.2665    6.8412   11.1298 C   0  0  2  0  0  0  0  0  0  0  0  0
   27.6343    7.3702    9.8411 O   0  0  0  0  0  0  0  0  0  0  0  0
   28.9030    5.4368   10.9195 C   0  0  0  0  0  0  0  0  0  0  0  0
   29.8196    5.3789    9.8375 N   0  0  0  0  0  0  0  0  0  0  0  0
   25.9628   13.2505   11.8325 C   0  0  2  0  0  0  0  0  0  0  0  0
   25.7955   14.6321   12.3713 N   0  0  0  0  0  0  0  0  0  0  0  0
   27.1579   12.5665   12.6574 C   0  0  0  0  0  0  0  0  0  0  0  0
   27.3871   11.0882   12.1672 C   0  0  2  0  0  0  0  0  0  0  0  0
   28.4934   10.4571   12.9018 N   0  0  0  0  0  0  0  0  0  0  0  0
   27.7334   11.0714   10.6649 C   0  0  2  0  0  0  0  0  0  0  0  0
   26.5755   11.7435    9.8220 C   0  0  2  0  0  0  0  0  0  0  0  0
   26.9967   11.6711    8.4089 O   0  0  0  0  0  0  0  0  0  0  0  0
   26.4056   13.2751   10.2983 C   0  0  1  0  0  0  0  0  0  0  0  0
   25.3888   13.8506    9.5402 O   0  0  0  0  0  0  0  0  0  0  0  0
   27.0326   12.6402    7.5589 C   0  0  1  0  0  0  0  0  0  0  0  0
   28.1618   12.5592    6.4898 C   0  0  2  0  0  0  0  0  0  0  0  0
   29.2761   13.2320    6.9853 O   0  0  0  0  0  0  0  0  0  0  0  0
   27.5014   13.3193    5.4156 C   0  0  1  0  0  0  0  0  0  0  0  0
   25.9902   12.9324    5.4048 C   0  0  2  0  0  0  0  0  0  0  0  0
   25.7983   12.8354    6.7948 O   0  0  0  0  0  0  0  0  0  0  0  0
   25.5534   11.7473    4.5424 C   0  0  0  0  0  0  0  0  0  0  0  0
   24.2358   11.4270    4.9473 O   0  0  0  0  0  0  0  0  0  0  0  0
   26.6776   15.6268    5.5578 C   0  0  2  0  0  0  0  0  0  0  0  0
   27.7268   14.7690    5.7219 O   0  0  0  0  0  0  0  0  0  0  0  0
   27.1292   17.0512    5.4231 C   0  0  1  0  0  0  0  0  0  0  0  0
   22.8652   14.8860    7.9388 N   0  0  0  0  0  0  0  0  0  0  0  0
   27.7895   17.8168   12.8701 O   0  0  0  0  0  0  0  0  0  0  0  0
   25.8677   17.9896    5.2887 C   0  0  2  0  0  0  0  0  0  0  0  0
   24.8583   17.8620    6.4819 C   0  0  1  0  0  0  0  0  0  0  0  0
   24.4311   16.4864    6.5851 C   0  0  1  0  0  0  0  0  0  0  0  0
   25.6271   15.5623    6.7151 O   0  0  0  0  0  0  0  0  0  0  0  0
   23.4367   16.3012    7.8139 C   0  0  0  0  0  0  0  0  0  0  0  0
   27.8440   17.4419    6.5732 N   0  0  0  0  0  0  0  0  0  0  0  0
   25.6324    8.0919   13.1965 O   0  0  0  0  0  0  0  0  0  0  0  0
   25.7164   17.6045   11.9661 C   0  0  0  0  0  0  0  0  0  0  0  0
   25.4028   18.1557    7.4488 O   0  0  0  0  0  0  0  0  0  0  0  0
   25.2959   17.6868    4.3376 O   0  0  0  0  0  0  0  0  0  0  0  0
   26.9345   15.5850   12.1623 C   0  0  0  0  0  0  0  0  0  0  0  0
   25.9443   18.9625   11.9677 C   0  0  0  0  0  0  0  0  0  0  0  0
   26.5986   17.0368   12.7875 C   0  0  1  0  0  0  0  0  0  0  0  0
   26.1790    5.8481   11.8669 F   0  0  0  0  0  0  0  0  0  0  0  0
  1  2  1  1  0  0  0
  1 10  1  0  0  0  0
  1  3  1  0  0  0  0
  3  4  1  1  0  0  0
  3  6  1  0  0  0  0
  5 46  2  0  0  0  0
  6 42  1  1  0  0  0
  6  8  1  0  0  0  0
  7 47  1  0  0  0  0
  8  9  1  0  0  0  0
  8 49  1  6  0  0  0
  9 10  1  0  0  0  0
  9 11  1  6  0  0  0
 11 12  1  0  0  0  0
 13 14  1  1  0  0  0
 13 15  1  0  0  0  0
 13 21  1  0  0  0  0
 14 46  1  0  0  0  0
 15 16  1  0  0  0  0
 16 17  1  1  0  0  0
 16 18  1  0  0  0  0
 18  2  1  6  0  0  0
 18 19  1  0  0  0  0
 19 20  1  6  0  0  0
 19 21  1  0  0  0  0
 21 22  1  6  0  0  0
 23 20  1  6  0  0  0
 23 24  1  0  0  0  0
 23 28  1  0  0  0  0
 24 25  1  1  0  0  0
 24 26  1  0  0  0  0
 26 27  1  0  0  0  0
 26 32  1  1  0  0  0
 27 28  1  0  0  0  0
 27 29  1  6  0  0  0
 29 30  1  0  0  0  0
 31 32  1  1  0  0  0
 31 33  1  0  0  0  0
 31 39  1  0  0  0  0
 33 36  1  0  0  0  0
 33 41  1  1  0  0  0
 34 40  1  0  0  0  0
 35 48  1  0  0  0  0
 36 37  1  0  0  0  0
 36 45  1  6  0  0  0
 37 38  1  0  0  0  0
 37 44  1  1  0  0  0
 38 39  1  0  0  0  0
 38 40  1  1  0  0  0
 43 47  1  0  0  0  0
 46 48  1  0  0  0  0
 48 43  1  6  0  0  0
M  END
>  <CHROM.1>
-53.88890046,84.34187690,173.72510998,65.35806629,-128.89467648,147.31189550
-137.45125377,166.84560852,-159.94778881,176.26520501,161.39945019,-27.54268725
-14.89635174,26.55027022,12.97653245,9.23621117,0.09160192,1.42076390,-2.03751311

>  <Name>
ligand

>  <RI>
0

>  <Rbt.Current_Directory>
/home/itssahil/PROJECTS/Mol_Feturizer/New_Systems/rnas/4PDQ

>  <Rbt.Executable>
rbdock ($Id: //depot/dev/client3/rdock/2013.1/src/exe/rbdock.cxx#4 $)

>  <Rbt.Library>
libRbt.so (2013.1, Build901 2013/11/27)

>  <Rbt.Parameter_File>
/export/apps/rDock/src/rDock_2013.1_src/data/scripts/dock_solv.prm

>  <Rbt.Receptor>
prm/blind_docking_100.prm

>  <SCORE>
20.7641

>  <SCORE.INTER>
1.50899

>  <SCORE.INTER.CONST>
1

>  <SCORE.INTER.POLAR>
0

>  <SCORE.INTER.ROT>
13

>  <SCORE.INTER.SOLV>
40.4981

>  <SCORE.INTER.VDW>
-24.7601

>  <SCORE.INTER.norm>
0.0307957

>  <SCORE.INTRA>
14.0241

>  <SCORE.INTRA.DIHEDRAL>
-7.27224

>  <SCORE.INTRA.DIHEDRAL.0>
34.5115

>  <SCORE.INTRA.POLAR>
0

>  <SCORE.INTRA.POLAR.0>
0

>  <SCORE.INTRA.REPUL>
0.29029

>  <SCORE.INTRA.REPUL.0>
0

>  <SCORE.INTRA.SOLV>
6.30748

>  <SCORE.INTRA.SOLV.lig_0>
-122.812

>  <SCORE.INTRA.VDW>
13.0551

>  <SCORE.INTRA.VDW.0>
-7.46208

>  <SCORE.INTRA.norm>
0.286207

>  <SCORE.RESTR>
5.23096

>  <SCORE.RESTR.CAVITY>
5.23096

>  <SCORE.RESTR.norm>
0.106754

>  <SCORE.SYSTEM>
0

>  <SCORE.SYSTEM.CONST>
0

>  <SCORE.SYSTEM.DIHEDRAL>
0

>  <SCORE.SYSTEM.SOLV>
0

>  <SCORE.SYSTEM.norm>
0

>  <SCORE.heavy>
49

>  <SCORE.norm>
0.423757

>  <RMSD>
11.036

$$$$
ligand
 OpenBabel11021811513D
libRbt.so/2013.1/901 2013/11/27
 49 52  0  0  0  0  0  0  0  0999 V2000
   28.3309    5.4542    9.0649 C   0  0  2  0  0  0  0  0  0  0  0  0
   27.5344    6.4831    9.5737 O   0  0  0  0  0  0  0  0  0  0  0  0
   27.4893    4.1273    8.9729 C   0  0  2  0  0  0  0  0  0  0  0  0
   26.2867    4.3614    8.0721 N   0  0  0  0  0  0  0  0  0  0  0  0
   25.1944   12.6318    9.9734 O   0  0  0  0  0  0  0  0  0  0  0  0
   27.0561    3.6652   10.3838 C   0  0  2  0  0  0  0  0  0  0  0  0
   27.1307   17.0440   12.1616 N   0  0  0  0  0  0  0  0  0  0  0  0
   28.2862    3.4547   11.2806 C   0  0  2  0  0  0  0  0  0  0  0  0
   29.1623    4.7733   11.3962 C   0  0  2  0  0  0  0  0  0  0  0  0
   29.5211    5.2215    9.9782 O   0  0  0  0  0  0  0  0  0  0  0  0
   30.4349    4.5371   12.2601 C   0  0  0  0  0  0  0  0  0  0  0  0
   30.1593    4.0668   13.5703 N   0  0  0  0  0  0  0  0  0  0  0  0
   27.3820   10.8114    9.3608 C   0  0  2  0  0  0  0  0  0  0  0  0
   27.5886   12.2378    9.7478 N   0  0  0  0  0  0  0  0  0  0  0  0
   26.8590   10.0413   10.6684 C   0  0  0  0  0  0  0  0  0  0  0  0
   26.5903    8.5250   10.3414 C   0  0  2  0  0  0  0  0  0  0  0  0
   26.1297    7.8038   11.5371 N   0  0  0  0  0  0  0  0  0  0  0  0
   27.8819    7.8502    9.8382 C   0  0  2  0  0  0  0  0  0  0  0  0
   28.4273    8.5891    8.5500 C   0  0  2  0  0  0  0  0  0  0  0  0
   29.6507    7.8682    8.1461 O   0  0  0  0  0  0  0  0  0  0  0  0
   28.7562   10.1221    8.9283 C   0  0  1  0  0  0  0  0  0  0  0  0
   29.2416   10.7523    7.7852 O   0  0  0  0  0  0  0  0  0  0  0  0
   30.4002    8.1210    7.1276 C   0  0  1  0  0  0  0  0  0  0  0  0
   31.6891    7.2558    7.0064 C   0  0  2  0  0  0  0  0  0  0  0  0
   32.7206    7.9212    7.6646 O   0  0  0  0  0  0  0  0  0  0  0  0
   31.8530    7.3107    5.5442 C   0  0  1  0  0  0  0  0  0  0  0  0
   30.4387    7.2177    4.8927 C   0  0  2  0  0  0  0  0  0  0  0  0
   29.7355    7.9981    5.8281 O   0  0  0  0  0  0  0  0  0  0  0  0
   29.8840    5.8310    4.5637 C   0  0  0  0  0  0  0  0  0  0  0  0
   29.5164    5.2478    5.7996 O   0  0  0  0  0  0  0  0  0  0  0  0
   33.0299    8.7922    3.9810 C   0  0  2  0  0  0  0  0  0  0  0  0
   32.5460    8.6052    5.2437 O   0  0  0  0  0  0  0  0  0  0  0  0
   33.6472   10.1488    3.8085 C   0  0  1  0  0  0  0  0  0  0  0  0
   30.6166    7.1611    0.4928 N   0  0  0  0  0  0  0  0  0  0  0  0
   25.6392   15.4294   10.2084 O   0  0  0  0  0  0  0  0  0  0  0  0
   34.1373   10.3148    2.3177 C   0  0  2  0  0  0  0  0  0  0  0  0
   33.0027   10.1076    1.2554 C   0  0  1  0  0  0  0  0  0  0  0  0
   32.4314    8.7934    1.4348 C   0  0  1  0  0  0  0  0  0  0  0  0
   31.9522    8.6079    2.8621 O   0  0  0  0  0  0  0  0  0  0  0  0
   31.2429    8.5556    0.4034 C   0  0  0  0  0  0  0  0  0  0  0  0
   32.6909   11.1509    4.0683 N   0  0  0  0  0  0  0  0  0  0  0  0
   26.4828    2.6805   10.2939 O   0  0  0  0  0  0  0  0  0  0  0  0
   27.0526   14.5288   11.7417 C   0  0  0  0  0  0  0  0  0  0  0  0
   32.1880   10.8952    1.4383 O   0  0  0  0  0  0  0  0  0  0  0  0
   34.9347    9.5119    2.1113 O   0  0  0  0  0  0  0  0  0  0  0  0
   26.3597   13.0499   10.0290 C   0  0  0  0  0  0  0  0  0  0  0  0
   27.6479   15.7260   12.0710 C   0  0  0  0  0  0  0  0  0  0  0  0
   26.7465   14.5627   10.4454 C   0  0  1  0  0  0  0  0  0  0  0  0
   29.0968    2.4354   10.7503 F   0  0  0  0  0  0  0  0  0  0  0  0
  1  2  1  1  0  0  0
  1 10  1  0  0  0  0
  1  3  1  0  0  0  0
  3  4  1  6  0  0  0
  3  6  1  0  0  0  0
  5 46  2  0  0  0  0
  6 42  1  6  0  0  0
  6  8  1  0  0  0  0
  7 47  1  0  0  0  0
  8  9  1  0  0  0  0
  8 49  1  6  0  0  0
  9 10  1  0  0  0  0
  9 11  1  1  0  0  0
 11 12  1  0  0  0  0
 13 14  1  1  0  0  0
 13 15  1  0  0  0  0
 13 21  1  0  0  0  0
 14 46  1  0  0  0  0
 15 16  1  0  0  0  0
 16 17  1  1  0  0  0
 16 18  1  0  0  0  0
 18  2  1  6  0  0  0
 18 19  1  0  0  0  0
 19 20  1  1  0  0  0
 19 21  1  0  0  0  0
 21 22  1  6  0  0  0
 23 20  1  1  0  0  0
 23 24  1  0  0  0  0
 23 28  1  0  0  0  0
 24 25  1  1  0  0  0
 24 26  1  0  0  0  0
 26 27  1  0  0  0  0
 26 32  1  1  0  0  0
 27 28  1  0  0  0  0
 27 29  1  1  0  0  0
 29 30  1  0  0  0  0
 31 32  1  1  0  0  0
 31 33  1  0  0  0  0
 31 39  1  0  0  0  0
 33 36  1  0  0  0  0
 33 41  1  6  0  0  0
 34 40  1  0  0  0  0
 35 48  1  0  0  0  0
 36 37  1  0  0  0  0
 36 45  1  6  0  0  0
 37 38  1  0  0  0  0
 37 44  1  1  0  0  0
 38 39  1  0  0  0  0
 38 40  1  6  0  0  0
 43 47  1  0  0  0  0
 46 48  1  0  0  0  0
 48 43  1  1  0  0  0
M  END
>  <CHROM.1>
179.38491394,178.00270554,-57.05322415,-69.94709980,178.54466434,175.73084349
168.53491644,73.73084543,177.69329685,177.79509568,69.25173598,-72.77636290
-23.18175329,29.45278436,8.49822999,7.64892781,-3.03465072,1.00609456,-0.17275180

>  <Name>
ligand

>  <RI>
0

>  <Rbt.Current_Directory>
/home/itssahil/PROJECTS/Mol_Feturizer/New_Systems/rnas/4PDQ

>  <Rbt.Executable>
rbdock ($Id: //depot/dev/client3/rdock/2013.1/src/exe/rbdock.cxx#4 $)

>  <Rbt.Library>
libRbt.so (2013.1, Build901 2013/11/27)

>  <Rbt.Parameter_File>
/export/apps/rDock/src/rDock_2013.1_src/data/scripts/dock_solv.prm

>  <Rbt.Receptor>
prm/pocket_docking_8.prm

>  <SCORE>
-20.1407

>  <SCORE.INTER>
-5.56309

>  <SCORE.INTER.CONST>
1

>  <SCORE.INTER.POLAR>
0

>  <SCORE.INTER.ROT>
13

>  <SCORE.INTER.SOLV>
16.2899

>  <SCORE.INTER.VDW>
-21.4054

>  <SCORE.INTER.norm>
-0.113532

>  <SCORE.INTRA>
-14.5777

>  <SCORE.INTRA.DIHEDRAL>
-30.6668

>  <SCORE.INTRA.DIHEDRAL.0>
34.5115

>  <SCORE.INTRA.POLAR>
0

>  <SCORE.INTRA.POLAR.0>
0

>  <SCORE.INTRA.REPUL>
0

>  <SCORE.INTRA.REPUL.0>
0

>  <SCORE.INTRA.SOLV>
-2.49733

>  <SCORE.INTRA.SOLV.lig_0>
-122.812

>  <SCORE.INTRA.VDW>
2.00442

>  <SCORE.INTRA.VDW.0>
-7.46208

>  <SCORE.INTRA.norm>
-0.297503

>  <SCORE.RESTR>
0

>  <SCORE.RESTR.CAVITY>
0

>  <SCORE.RESTR.norm>
0

>  <SCORE.SYSTEM>
0

>  <SCORE.SYSTEM.CONST>
0

>  <SCORE.SYSTEM.DIHEDRAL>
0

>  <SCORE.SYSTEM.SOLV>
0

>  <SCORE.SYSTEM.norm>
0

>  <SCORE.heavy>
49

>  <SCORE.norm>
-0.411036

>  <RMSD>
11.044

$$$$
ligand
 OpenBabel11021811513D
libRbt.so/2013.1/901 2013/11/27
 49 52  0  0  0  0  0  0  0  0999 V2000
   23.6325   17.2428   10.2778 C   0  0  2  0  0  0  0  0  0  0  0  0
   24.1357   16.2009    9.4947 O   0  0  0  0  0  0  0  0  0  0  0  0
   23.5383   18.5567    9.4163 C   0  0  2  0  0  0  0  0  0  0  0  0
   22.6312   18.3056    8.2219 N   0  0  0  0  0  0  0  0  0  0  0  0
   27.4900   12.5754   14.2584 O   0  0  0  0  0  0  0  0  0  0  0  0
   24.9478   19.0098    8.9690 C   0  0  2  0  0  0  0  0  0  0  0  0
   28.2363    9.1719   11.4273 N   0  0  0  0  0  0  0  0  0  0  0  0
   25.8510   19.2377   10.1912 C   0  0  2  0  0  0  0  0  0  0  0  0
   25.9690   17.9326   11.0869 C   0  0  2  0  0  0  0  0  0  0  0  0
   24.5521   17.4922   11.4597 O   0  0  0  0  0  0  0  0  0  0  0  0
   26.8396   18.1869   12.3515 C   0  0  0  0  0  0  0  0  0  0  0  0
   27.1126   17.0156   13.1048 N   0  0  0  0  0  0  0  0  0  0  0  0
   25.5588   13.0714   12.1374 C   0  0  2  0  0  0  0  0  0  0  0  0
   25.9059   11.7042   12.6245 N   0  0  0  0  0  0  0  0  0  0  0  0
   24.0997   12.9773   11.4751 C   0  0  0  0  0  0  0  0  0  0  0  0
   23.6418   14.3902   10.9532 C   0  0  2  0  0  0  0  0  0  0  0  0
   22.3142   14.3131   10.3258 N   0  0  0  0  0  0  0  0  0  0  0  0
   24.6405   14.9220    9.9060 C   0  0  2  0  0  0  0  0  0  0  0  0
   26.0924   15.0230   10.5264 C   0  0  2  0  0  0  0  0  0  0  0  0
   26.9647   15.5446    9.4557 O   0  0  0  0  0  0  0  0  0  0  0  0
   26.5634   13.5527   10.9930 C   0  0  1  0  0  0  0  0  0  0  0  0
   27.8446   13.6614   11.5281 O   0  0  0  0  0  0  0  0  0  0  0  0
   27.3393   14.9249    8.3888 C   0  0  1  0  0  0  0  0  0  0  0  0
   28.3354   15.6968    7.4741 C   0  0  2  0  0  0  0  0  0  0  0  0
   27.5955   16.4190    6.5409 O   0  0  0  0  0  0  0  0  0  0  0  0
   29.0075   14.5409    6.8576 C   0  0  1  0  0  0  0  0  0  0  0  0
   29.1920   13.4451    7.9525 C   0  0  2  0  0  0  0  0  0  0  0  0
   27.9675   13.6222    8.6215 O   0  0  0  0  0  0  0  0  0  0  0  0
   30.4705   13.4694    8.7914 C   0  0  0  0  0  0  0  0  0  0  0  0
   31.5226   13.0970    7.9213 O   0  0  0  0  0  0  0  0  0  0  0  0
   27.3010   13.0287    5.9497 C   0  0  2  0  0  0  0  0  0  0  0  0
   28.1288   14.0916    5.7297 O   0  0  0  0  0  0  0  0  0  0  0  0
   26.7490   12.4694    4.6715 C   0  0  1  0  0  0  0  0  0  0  0  0
   23.1459   13.8403    7.6296 N   0  0  0  0  0  0  0  0  0  0  0  0
   26.7276    9.8576   15.4814 O   0  0  0  0  0  0  0  0  0  0  0  0
   25.7645   11.2814    5.0024 C   0  0  2  0  0  0  0  0  0  0  0  0
   24.5886   11.6859    5.9577 C   0  0  1  0  0  0  0  0  0  0  0  0
   25.1440   12.2114    7.1828 C   0  0  1  0  0  0  0  0  0  0  0  0
   26.0958   13.3562    6.8918 O   0  0  0  0  0  0  0  0  0  0  0  0
   23.9835   12.6767    8.1675 C   0  0  0  0  0  0  0  0  0  0  0  0
   26.0212   13.4619    3.9848 N   0  0  0  0  0  0  0  0  0  0  0  0
   24.8566   19.9856    8.3811 O   0  0  0  0  0  0  0  0  0  0  0  0
   26.4947    9.3264   13.2851 C   0  0  0  0  0  0  0  0  0  0  0  0
   23.9735   12.5086    5.4455 O   0  0  0  0  0  0  0  0  0  0  0  0
   26.3624   10.4606    5.5426 O   0  0  0  0  0  0  0  0  0  0  0  0
   26.9237   11.6124   13.7220 C   0  0  0  0  0  0  0  0  0  0  0  0
   27.3953    8.6878   12.4623 C   0  0  0  0  0  0  0  0  0  0  0  0
   27.1817   10.0749   14.1472 C   0  0  1  0  0  0  0  0  0  0  0  0
   25.3264   20.2703   10.9887 F   0  0  0  0  0  0  0  0  0  0  0  0
  1  2  1  6  0  0  0
  1 10  1  0  0  0  0
  1  3  1  0  0  0  0
  3  4  1  6  0  0  0
  3  6  1  0  0  0  0
  5 46  2  0  0  0  0
  6 42  1  1  0  0  0
  6  8  1  0  0  0  0
  7 47  1  0  0  0  0
  8  9  1  0  0  0  0
  8 49  1  1  0  0  0
  9 10  1  0  0  0  0
  9 11  1  1  0  0  0
 11 12  1  0  0  0  0
 13 14  1  6  0  0  0
 13 15  1  0  0  0  0
 13 21  1  0  0  0  0
 14 46  1  0  0  0  0
 15 16  1  0  0  0  0
 16 17  1  6  0  0  0
 16 18  1  0  0  0  0
 18  2  1  1  0  0  0
 18 19  1  0  0  0  0
 19 20  1  6  0  0  0
 19 21  1  0  0  0  0
 21 22  1  1  0  0  0
 23 20  1  1  0  0  0
 23 24  1  0  0  0  0
 23 28  1  0  0  0  0
 24 25  1  6  0  0  0
 24 26  1  0  0  0  0
 26 27  1  0  0  0  0
 26 32  1  6  0  0  0
 27 28  1  0  0  0  0
 27 29  1  1  0  0  0
 29 30  1  0  0  0  0
 31 32  1  6  0  0  0
 31 33  1  0  0  0  0
 31 39  1  0  0  0  0
 33 36  1  0  0  0  0
 33 41  1  1  0  0  0
 34 40  1  0  0  0  0
 35 48  1  0  0  0  0
 36 37  1  0  0  0  0
 36 45  1  1  0  0  0
 37 38  1  0  0  0  0
 37 44  1  6  0  0  0
 38 39  1  0  0  0  0
 38 40  1  1  0  0  0
 43 47  1  0  0  0  0
 46 48  1  0  0  0  0
 48 43  1  6  0  0  0
M  END
>  <CHROM.1>
166.06114114,44.79234022,-172.82131763,-156.66862333,-70.38216167,-176.41792939
-99.14063338,-69.86971339,-165.42794310,-64.15528742,-70.96953958,-131.30227618
65.17813581,26.18413324,14.24685723,9.45488346,2.71683068,1.26531521,-1.46052267

>  <Name>
ligand

>  <RI>
0

>  <Rbt.Current_Directory>
/home/itssahil/PROJECTS/Mol_Feturizer/New_Systems/rnas/4PDQ

>  <Rbt.Executable>
rbdock ($Id: //depot/dev/client3/rdock/2013.1/src/exe/rbdock.cxx#4 $)

>  <Rbt.Library>
libRbt.so (2013.1, Build901 2013/11/27)

>  <Rbt.Parameter_File>
/export/apps/rDock/src/rDock_2013.1_src/data/scripts/dock_solv.prm

>  <Rbt.Receptor>
prm/blind_docking_80.prm

>  <SCORE>
26.9453

>  <SCORE.INTER>
18.2708

>  <SCORE.INTER.CONST>
1

>  <SCORE.INTER.POLAR>
0

>  <SCORE.INTER.ROT>
13

>  <SCORE.INTER.SOLV>
28.4235

>  <SCORE.INTER.VDW>
-9.56061

>  <SCORE.INTER.norm>
0.372874

>  <SCORE.INTRA>
1.6903

>  <SCORE.INTRA.DIHEDRAL>
-17.0502

>  <SCORE.INTRA.DIHEDRAL.0>
34.5115

>  <SCORE.INTRA.POLAR>
0

>  <SCORE.INTRA.POLAR.0>
0

>  <SCORE.INTRA.REPUL>
0

>  <SCORE.INTRA.REPUL.0>
0

>  <SCORE.INTRA.SOLV>
8.25321

>  <SCORE.INTRA.SOLV.lig_0>
-122.812

>  <SCORE.INTRA.VDW>
6.08882

>  <SCORE.INTRA.VDW.0>
-7.46208

>  <SCORE.INTRA.norm>
0.034496

>  <SCORE.RESTR>
6.98412

>  <SCORE.RESTR.CAVITY>
6.98412

>  <SCORE.RESTR.norm>
0.142533

>  <SCORE.SYSTEM>
0

>  <SCORE.SYSTEM.CONST>
0

>  <SCORE.SYSTEM.DIHEDRAL>
0

>  <SCORE.SYSTEM.SOLV>
0

>  <SCORE.SYSTEM.norm>
0

>  <SCORE.heavy>
49

>  <SCORE.norm>
0.549904

>  <RMSD>
11.051

$$$$
ligand
 OpenBabel11021811513D
libRbt.so/2013.1/901 2013/11/27
 49 52  0  0  0  0  0  0  0  0999 V2000
   26.5958   16.2723   10.5975 C   0  0  2  0  0  0  0  0  0  0  0  0
   25.6009   15.3024   10.7441 O   0  0  0  0  0  0  0  0  0  0  0  0
   27.2435   16.5842   11.9976 C   0  0  2  0  0  0  0  0  0  0  0  0
   27.8314   15.3044   12.5711 N   0  0  0  0  0  0  0  0  0  0  0  0
   25.0839    9.5962   10.3626 O   0  0  0  0  0  0  0  0  0  0  0  0
   26.1935   17.1999   12.9518 C   0  0  2  0  0  0  0  0  0  0  0  0
   28.0019    5.3830   12.3205 N   0  0  0  0  0  0  0  0  0  0  0  0
   25.6000   18.4798   12.3424 C   0  0  2  0  0  0  0  0  0  0  0  0
   24.9381   18.2046   10.9261 C   0  0  2  0  0  0  0  0  0  0  0  0
   25.9953   17.5486   10.0360 O   0  0  0  0  0  0  0  0  0  0  0  0
   24.3889   19.5146   10.2905 C   0  0  0  0  0  0  0  0  0  0  0  0
   25.4010   20.4052    9.8474 N   0  0  0  0  0  0  0  0  0  0  0  0
   27.0750   11.3169   11.6073 C   0  0  2  0  0  0  0  0  0  0  0  0
   27.1016    9.8283   11.7090 N   0  0  0  0  0  0  0  0  0  0  0  0
   25.6543   11.8009   12.1764 C   0  0  0  0  0  0  0  0  0  0  0  0
   25.5501   13.3710   12.1287 C   0  0  2  0  0  0  0  0  0  0  0  0
   24.2445   13.8260   12.6289 N   0  0  0  0  0  0  0  0  0  0  0  0
   25.7139   13.8731   10.6802 C   0  0  2  0  0  0  0  0  0  0  0  0
   27.1049   13.4087   10.0868 C   0  0  2  0  0  0  0  0  0  0  0  0
   27.1670   13.9418    8.7115 O   0  0  0  0  0  0  0  0  0  0  0  0
   27.1594   11.7967   10.0864 C   0  0  1  0  0  0  0  0  0  0  0  0
   28.3863   11.4083    9.5540 O   0  0  0  0  0  0  0  0  0  0  0  0
   26.1775   14.3462    7.9903 C   0  0  1  0  0  0  0  0  0  0  0  0
   26.4868   15.5225    7.0180 C   0  0  2  0  0  0  0  0  0  0  0  0
   26.2161   16.7161    7.6828 O   0  0  0  0  0  0  0  0  0  0  0  0
   25.4727   15.2304    5.9912 C   0  0  1  0  0  0  0  0  0  0  0  0
   25.3994   13.6831    5.8068 C   0  0  2  0  0  0  0  0  0  0  0  0
   25.5621   13.3129    7.1540 O   0  0  0  0  0  0  0  0  0  0  0  0
   26.3221   13.0335    4.7746 C   0  0  0  0  0  0  0  0  0  0  0  0
   25.8821   11.6956    4.6362 O   0  0  0  0  0  0  0  0  0  0  0  0
   23.5802   15.2174    7.5537 C   0  0  2  0  0  0  0  0  0  0  0  0
   24.1859   15.8170    6.4874 O   0  0  0  0  0  0  0  0  0  0  0  0
   22.2979   14.5410    7.1673 C   0  0  1  0  0  0  0  0  0  0  0  0
   21.5143   17.8714   10.6175 N   0  0  0  0  0  0  0  0  0  0  0  0
   25.0839    6.8019   10.5938 O   0  0  0  0  0  0  0  0  0  0  0  0
   21.6283   13.9158    8.4521 C   0  0  2  0  0  0  0  0  0  0  0  0
   21.3574   14.9586    9.5914 C   0  0  1  0  0  0  0  0  0  0  0  0
   22.6058   15.5884    9.9525 C   0  0  1  0  0  0  0  0  0  0  0  0
   23.2708   16.1978    8.7329 O   0  0  0  0  0  0  0  0  0  0  0  0
   22.3711   16.6887   11.0782 C   0  0  0  0  0  0  0  0  0  0  0  0
   21.4016   15.4815    6.6210 N   0  0  0  0  0  0  0  0  0  0  0  0
   26.6970   17.4547   13.9457 O   0  0  0  0  0  0  0  0  0  0  0  0
   27.3269    7.1599   10.6189 C   0  0  0  0  0  0  0  0  0  0  0  0
   20.6410   15.7587    9.1862 O   0  0  0  0  0  0  0  0  0  0  0  0
   22.3491   13.1314    8.8860 O   0  0  0  0  0  0  0  0  0  0  0  0
   26.0023    9.0804   11.0155 C   0  0  0  0  0  0  0  0  0  0  0  0
   27.6775    5.8960   11.0382 C   0  0  0  0  0  0  0  0  0  0  0  0
   26.1758    7.4851   11.2057 C   0  0  1  0  0  0  0  0  0  0  0  0
   26.6103   19.4432   12.1739 F   0  0  0  0  0  0  0  0  0  0  0  0
  1  2  1  1  0  0  0
  1 10  1  0  0  0  0
  1  3  1  0  0  0  0
  3  4  1  1  0  0  0
  3  6  1  0  0  0  0
  5 46  2  0  0  0  0
  6 42  1  1  0  0  0
  6  8  1  0  0  0  0
  7 47  1  0  0  0  0
  8  9  1  0  0  0  0
  8 49  1  6  0  0  0
  9 10  1  0  0  0  0
  9 11  1  6  0  0  0
 11 12  1  0  0  0  0
 13 14  1  6  0  0  0
 13 15  1  0  0  0  0
 13 21  1  0  0  0  0
 14 46  1  0  0  0  0
 15 16  1  0  0  0  0
 16 17  1  6  0  0  0
 16 18  1  0  0  0  0
 18  2  1  1  0  0  0
 18 19  1  0  0  0  0
 19 20  1  6  0  0  0
 19 21  1  0  0  0  0
 21 22  1  1  0  0  0
 23 20  1  6  0  0  0
 23 24  1  0  0  0  0
 23 28  1  0  0  0  0
 24 25  1  1  0  0  0
 24 26  1  0  0  0  0
 26 27  1  0  0  0  0
 26 32  1  1  0  0  0
 27 28  1  0  0  0  0
 27 29  1  6  0  0  0
 29 30  1  0  0  0  0
 31 32  1  6  0  0  0
 31 33  1  0  0  0  0
 31 39  1  0  0  0  0
 33 36  1  0  0  0  0
 33 41  1  1  0  0  0
 34 40  1  0  0  0  0
 35 48  1  0  0  0  0
 36 37  1  0  0  0  0
 36 45  1  1  0  0  0
 37 38  1  0  0  0  0
 37 44  1  6  0  0  0
 38 39  1  0  0  0  0
 38 40  1  1  0  0  0
 43 47  1  0  0  0  0
 46 48  1  0  0  0  0
 48 43  1  6  0  0  0
M  END
>  <CHROM.1>
-89.36164438,107.73741362,71.12769610,56.79511811,-18.75535846,146.75623335
-70.40767924,-169.40108158,-111.20108519,-64.87988438,-63.33519126,-75.37905407
-3.74941303,25.27624453,14.04135058,9.78880043,-2.07741122,1.05306617,-2.75460801

>  <Name>
ligand

>  <RI>
0

>  <Rbt.Current_Directory>
/home/itssahil/PROJECTS/Mol_Feturizer/New_Systems/rnas/4PDQ

>  <Rbt.Executable>
rbdock ($Id: //depot/dev/client3/rdock/2013.1/src/exe/rbdock.cxx#4 $)

>  <Rbt.Library>
libRbt.so (2013.1, Build901 2013/11/27)

>  <Rbt.Parameter_File>
/export/apps/rDock/src/rDock_2013.1_src/data/scripts/dock_solv.prm

>  <Rbt.Receptor>
prm/blind_docking_100.prm

>  <SCORE>
14.6818

>  <SCORE.INTER>
6.20287

>  <SCORE.INTER.CONST>
1

>  <SCORE.INTER.POLAR>
0

>  <SCORE.INTER.ROT>
13

>  <SCORE.INTER.SOLV>
34.6568

>  <SCORE.INTER.VDW>
-19.6837

>  <SCORE.INTER.norm>
0.126589

>  <SCORE.INTRA>
6.66608

>  <SCORE.INTRA.DIHEDRAL>
-4.81876

>  <SCORE.INTRA.DIHEDRAL.0>
34.5115

>  <SCORE.INTRA.POLAR>
0

>  <SCORE.INTRA.POLAR.0>
0

>  <SCORE.INTRA.REPUL>
0.346554

>  <SCORE.INTRA.REPUL.0>
0

>  <SCORE.INTRA.SOLV>
8.94026

>  <SCORE.INTRA.SOLV.lig_0>
-122.812

>  <SCORE.INTRA.VDW>
2.87256

>  <SCORE.INTRA.VDW.0>
-7.46208

>  <SCORE.INTRA.norm>
0.136042

>  <SCORE.RESTR>
1.8129

>  <SCORE.RESTR.CAVITY>
1.8129

>  <SCORE.RESTR.norm>
0.0369979

>  <SCORE.SYSTEM>
0

>  <SCORE.SYSTEM.CONST>
0

>  <SCORE.SYSTEM.DIHEDRAL>
0

>  <SCORE.SYSTEM.SOLV>
0

>  <SCORE.SYSTEM.norm>
0

>  <SCORE.heavy>
49

>  <SCORE.norm>
0.29963

>  <RMSD>
11.067

$$$$
ligand
 OpenBabel11021811513D
libRbt.so/2013.1/901 2013/11/27
 49 52  0  0  0  0  0  0  0  0999 V2000
   26.4784    8.7503   12.4908 C   0  0  2  0  0  0  0  0  0  0  0  0
   27.3834    9.6837   11.9792 O   0  0  0  0  0  0  0  0  0  0  0  0
   26.9392    7.2963   12.1028 C   0  0  2  0  0  0  0  0  0  0  0  0
   28.3305    7.0479   12.6640 N   0  0  0  0  0  0  0  0  0  0  0  0
   28.0908   15.5099   12.1319 O   0  0  0  0  0  0  0  0  0  0  0  0
   26.9090    7.1133   10.5674 C   0  0  2  0  0  0  0  0  0  0  0  0
   24.7490   18.7093   11.3874 N   0  0  0  0  0  0  0  0  0  0  0  0
   25.4990    7.3886   10.0219 C   0  0  2  0  0  0  0  0  0  0  0  0
   24.9984    8.8479   10.3956 C   0  0  2  0  0  0  0  0  0  0  0  0
   25.0963    9.0005   11.9146 O   0  0  0  0  0  0  0  0  0  0  0  0
   23.5490    9.0997    9.8881 C   0  0  0  0  0  0  0  0  0  0  0  0
   23.4625   10.0749    8.8607 N   0  0  0  0  0  0  0  0  0  0  0  0
   26.1515   13.6446   13.2428 C   0  0  2  0  0  0  0  0  0  0  0  0
   26.2557   15.0696   13.6735 N   0  0  0  0  0  0  0  0  0  0  0  0
   27.2302   12.8164   14.0954 C   0  0  0  0  0  0  0  0  0  0  0  0
   27.1709   11.2888   13.7195 C   0  0  2  0  0  0  0  0  0  0  0  0
   28.1689   10.5220   14.4797 N   0  0  0  0  0  0  0  0  0  0  0  0
   27.4571   11.0972   12.2168 C   0  0  2  0  0  0  0  0  0  0  0  0
   26.4122   11.9056   11.3463 C   0  0  2  0  0  0  0  0  0  0  0  0
   26.7649   11.6523    9.9354 O   0  0  0  0  0  0  0  0  0  0  0  0
   26.5388   13.4734   11.7029 C   0  0  1  0  0  0  0  0  0  0  0  0
   25.6180   14.1676   10.9220 O   0  0  0  0  0  0  0  0  0  0  0  0
   26.6414   12.4696    8.9456 C   0  0  1  0  0  0  0  0  0  0  0  0
   27.7517   12.3847    7.8572 C   0  0  2  0  0  0  0  0  0  0  0  0
   28.7614   13.2815    8.1980 O   0  0  0  0  0  0  0  0  0  0  0  0
   26.9671   12.8616    6.7062 C   0  0  1  0  0  0  0  0  0  0  0  0
   25.5306   12.2634    6.8158 C   0  0  2  0  0  0  0  0  0  0  0  0
   25.3789   12.3608    8.2108 O   0  0  0  0  0  0  0  0  0  0  0  0
   25.2610   10.9062    6.1644 C   0  0  0  0  0  0  0  0  0  0  0  0
   23.8742   10.6651    6.3106 O   0  0  0  0  0  0  0  0  0  0  0  0
   25.8316   15.0222    6.4489 C   0  0  2  0  0  0  0  0  0  0  0  0
   26.9789   14.3587    6.7763 O   0  0  0  0  0  0  0  0  0  0  0  0
   25.9400   16.4966    6.7047 C   0  0  1  0  0  0  0  0  0  0  0  0
   22.1078   14.8118    9.1931 N   0  0  0  0  0  0  0  0  0  0  0  0
   28.5734   17.7642   14.0852 O   0  0  0  0  0  0  0  0  0  0  0  0
   24.5670   17.1908    6.3541 C   0  0  2  0  0  0  0  0  0  0  0  0
   23.3451   16.6026    7.1415 C   0  0  1  0  0  0  0  0  0  0  0  0
   23.2558   15.1866    6.8721 C   0  0  1  0  0  0  0  0  0  0  0  0
   24.5652   14.4950    7.2010 O   0  0  0  0  0  0  0  0  0  0  0  0
   22.0527   14.5379    7.6875 C   0  0  0  0  0  0  0  0  0  0  0  0
   26.2131   16.7314    8.0673 N   0  0  0  0  0  0  0  0  0  0  0  0
   27.2077    6.0395   10.3140 O   0  0  0  0  0  0  0  0  0  0  0  0
   26.9679   18.1982   12.5379 C   0  0  0  0  0  0  0  0  0  0  0  0
   23.5305   16.7565    8.2637 O   0  0  0  0  0  0  0  0  0  0  0  0
   24.3541   17.0195    5.2367 O   0  0  0  0  0  0  0  0  0  0  0  0
   27.3097   15.9044   13.0094 C   0  0  0  0  0  0  0  0  0  0  0  0
   25.6152   18.0725   12.3131 C   0  0  0  0  0  0  0  0  0  0  0  0
   27.2889   17.4197   13.5705 C   0  0  1  0  0  0  0  0  0  0  0  0
   24.5880    6.4621   10.5594 F   0  0  0  0  0  0  0  0  0  0  0  0
  1  2  1  6  0  0  0
  1 10  1  0  0  0  0
  1  3  1  0  0  0  0
  3  4  1  6  0  0  0
  3  6  1  0  0  0  0
  5 46  2  0  0  0  0
  6 42  1  1  0  0  0
  6  8  1  0  0  0  0
  7 47  1  0  0  0  0
  8  9  1  0  0  0  0
  8 49  1  1  0  0  0
  9 10  1  0  0  0  0
  9 11  1  1  0  0  0
 11 12  1  0  0  0  0
 13 14  1  1  0  0  0
 13 15  1  0  0  0  0
 13 21  1  0  0  0  0
 14 46  1  0  0  0  0
 15 16  1  0  0  0  0
 16 17  1  1  0  0  0
 16 18  1  0  0  0  0
 18  2  1  6  0  0  0
 18 19  1  0  0  0  0
 19 20  1  6  0  0  0
 19 21  1  0  0  0  0
 21 22  1  6  0  0  0
 23 20  1  1  0  0  0
 23 24  1  0  0  0  0
 23 28  1  0  0  0  0
 24 25  1  1  0  0  0
 24 26  1  0  0  0  0
 26 27  1  0  0  0  0
 26 32  1  1  0  0  0
 27 28  1  0  0  0  0
 27 29  1  1  0  0  0
 29 30  1  0  0  0  0
 31 32  1  1  0  0  0
 31 33  1  0  0  0  0
 31 39  1  0  0  0  0
 33 36  1  0  0  0  0
 33 41  1  1  0  0  0
 34 40  1  0  0  0  0
 35 48  1  0  0  0  0
 36 37  1  0  0  0  0
 36 45  1  6  0  0  0
 37 38  1  0  0  0  0
 37 44  1  1  0  0  0
 38 39  1  0  0  0  0
 38 40  1  1  0  0  0
 43 47  1  0  0  0  0
 46 48  1  0  0  0  0
 48 43  1  6  0  0  0
M  END
>  <CHROM.1>
-171.69525594,40.56211517,-113.00550021,84.45958705,-146.69479543,144.62973995
-141.17077447,-174.92939652,173.83269284,-54.08037436,177.04365519,-164.33790671
-57.31974851,25.90376488,12.83116798,10.00366628,-1.26247867,-1.16160277
0.01851072

>  <Name>
ligand

>  <RI>
0

>  <Rbt.Current_Directory>
/home/itssahil/PROJECTS/Mol_Feturizer/New_Systems/rnas/4PDQ

>  <Rbt.Executable>
rbdock ($Id: //depot/dev/client3/rdock/2013.1/src/exe/rbdock.cxx#4 $)

>  <Rbt.Library>
libRbt.so (2013.1, Build901 2013/11/27)

>  <Rbt.Parameter_File>
/export/apps/rDock/src/rDock_2013.1_src/data/scripts/dock_solv.prm

>  <Rbt.Receptor>
prm/blind_docking_100.prm

>  <SCORE>
20.6959

>  <SCORE.INTER>
5.11698

>  <SCORE.INTER.CONST>
1

>  <SCORE.INTER.POLAR>
0

>  <SCORE.INTER.ROT>
13

>  <SCORE.INTER.SOLV>
30.5233

>  <SCORE.INTER.VDW>
-19.0298

>  <SCORE.INTER.norm>
0.104428

>  <SCORE.INTRA>
6.67696

>  <SCORE.INTRA.DIHEDRAL>
-9.19388

>  <SCORE.INTRA.DIHEDRAL.0>
34.5115

>  <SCORE.INTRA.POLAR>
0

>  <SCORE.INTRA.POLAR.0>
0

>  <SCORE.INTRA.REPUL>
0.390347

>  <SCORE.INTRA.REPUL.0>
0

>  <SCORE.INTRA.SOLV>
5.09782

>  <SCORE.INTRA.SOLV.lig_0>
-122.812

>  <SCORE.INTRA.VDW>
6.77325

>  <SCORE.INTRA.VDW.0>
-7.46208

>  <SCORE.INTRA.norm>
0.136264

>  <SCORE.RESTR>
8.90194

>  <SCORE.RESTR.CAVITY>
8.90194

>  <SCORE.RESTR.norm>
0.181672

>  <SCORE.SYSTEM>
0

>  <SCORE.SYSTEM.CONST>
0

>  <SCORE.SYSTEM.DIHEDRAL>
0

>  <SCORE.SYSTEM.SOLV>
0

>  <SCORE.SYSTEM.norm>
0

>  <SCORE.heavy>
49

>  <SCORE.norm>
0.422365

>  <RMSD>
11.075

$$$$
ligand
 OpenBabel11021811513D
libRbt.so/2013.1/901 2013/11/27
 49 52  0  0  0  0  0  0  0  0999 V2000
   25.5250   10.1626    9.7419 C   0  0  2  0  0  0  0  0  0  0  0  0
   24.7257   11.1159   10.3778 O   0  0  0  0  0  0  0  0  0  0  0  0
   24.8519    8.7444    9.8556 C   0  0  2  0  0  0  0  0  0  0  0  0
   23.4741    8.7937    9.2142 N   0  0  0  0  0  0  0  0  0  0  0  0
   21.7890   17.0957    9.1460 O   0  0  0  0  0  0  0  0  0  0  0  0
   24.7699    8.3042   11.3359 C   0  0  2  0  0  0  0  0  0  0  0  0
   25.5387   21.3369    9.4151 N   0  0  0  0  0  0  0  0  0  0  0  0
   26.1707    8.2813   11.9673 C   0  0  2  0  0  0  0  0  0  0  0  0
   26.8830    9.6964   11.8698 C   0  0  2  0  0  0  0  0  0  0  0  0
   26.8931   10.1139   10.3980 O   0  0  0  0  0  0  0  0  0  0  0  0
   28.3219    9.6513   12.4608 C   0  0  0  0  0  0  0  0  0  0  0  0
   28.6677   10.8017   13.2164 N   0  0  0  0  0  0  0  0  0  0  0  0
   23.4606   15.2539   10.6588 C   0  0  2  0  0  0  0  0  0  0  0  0
   23.5526   16.7377   10.7891 N   0  0  0  0  0  0  0  0  0  0  0  0
   24.4379   14.6240   11.7654 C   0  0  0  0  0  0  0  0  0  0  0  0
   24.3835   13.0515   11.7143 C   0  0  2  0  0  0  0  0  0  0  0  0
   25.2904   12.4622   12.7103 N   0  0  0  0  0  0  0  0  0  0  0  0
   24.8051   12.5477   10.3195 C   0  0  2  0  0  0  0  0  0  0  0  0
   23.8627   13.1544    9.2031 C   0  0  2  0  0  0  0  0  0  0  0  0
   24.3407   12.6097    7.9169 O   0  0  0  0  0  0  0  0  0  0  0  0
   23.9868   14.7623    9.2334 C   0  0  1  0  0  0  0  0  0  0  0  0
   23.1572   15.2762    8.2398 O   0  0  0  0  0  0  0  0  0  0  0  0
   25.4117   12.9451    7.2819 C   0  0  1  0  0  0  0  0  0  0  0  0
   25.3775   12.7307    5.7400 C   0  0  2  0  0  0  0  0  0  0  0  0
   25.8691   11.4560    5.4692 O   0  0  0  0  0  0  0  0  0  0  0  0
   26.3379   13.7772    5.3520 C   0  0  1  0  0  0  0  0  0  0  0  0
   26.0969   15.0201    6.2634 C   0  0  2  0  0  0  0  0  0  0  0  0
   25.8245   14.3388    7.4634 O   0  0  0  0  0  0  0  0  0  0  0  0
   25.0892   16.0727    5.7989 C   0  0  0  0  0  0  0  0  0  0  0  0
   25.6988   16.7558    4.7198 O   0  0  0  0  0  0  0  0  0  0  0  0
   28.2842   13.2738    6.7598 C   0  0  2  0  0  0  0  0  0  0  0  0
   27.7036   13.1854    5.5275 O   0  0  0  0  0  0  0  0  0  0  0  0
   29.4054   14.2705    6.7851 C   0  0  1  0  0  0  0  0  0  0  0  0
   31.4765   10.2504    8.8338 N   0  0  0  0  0  0  0  0  0  0  0  0
   22.2688   19.4962   11.4577 O   0  0  0  0  0  0  0  0  0  0  0  0
   30.0615   14.2836    8.2202 C   0  0  2  0  0  0  0  0  0  0  0  0
   30.5858   12.8809    8.6854 C   0  0  1  0  0  0  0  0  0  0  0  0
   29.4883   11.9426    8.6621 C   0  0  1  0  0  0  0  0  0  0  0  0
   28.8392   11.9112    7.2914 O   0  0  0  0  0  0  0  0  0  0  0  0
   29.9854   10.4913    9.0862 C   0  0  0  0  0  0  0  0  0  0  0  0
   30.3980   13.9041    5.8540 N   0  0  0  0  0  0  0  0  0  0  0  0
   24.3159    7.2566   11.3888 O   0  0  0  0  0  0  0  0  0  0  0  0
   24.1513   19.3434   10.1957 C   0  0  0  0  0  0  0  0  0  0  0  0
   31.3895   12.5314    7.9440 O   0  0  0  0  0  0  0  0  0  0  0  0
   29.2582   14.6048    8.9783 O   0  0  0  0  0  0  0  0  0  0  0  0
   22.6253   17.5529    9.9380 C   0  0  0  0  0  0  0  0  0  0  0  0
   24.3723   20.6588    9.8539 C   0  0  0  0  0  0  0  0  0  0  0  0
   22.8355   19.1336   10.2005 C   0  0  1  0  0  0  0  0  0  0  0  0
   26.9782    7.3381   11.3072 F   0  0  0  0  0  0  0  0  0  0  0  0
  1  2  1  1  0  0  0
  1 10  1  0  0  0  0
  1  3  1  0  0  0  0
  3  4  1  1  0  0  0
  3  6  1  0  0  0  0
  5 46  2  0  0  0  0
  6 42  1  6  0  0  0
  6  8  1  0  0  0  0
  7 47  1  0  0  0  0
  8  9  1  0  0  0  0
  8 49  1  6  0  0  0
  9 10  1  0  0  0  0
  9 11  1  6  0  0  0
 11 12  1  0  0  0  0
 13 14  1  6  0  0  0
 13 15  1  0  0  0  0
 13 21  1  0  0  0  0
 14 46  1  0  0  0  0
 15 16  1  0  0  0  0
 16 17  1  1  0  0  0
 16 18  1  0  0  0  0
 18  2  1  1  0  0  0
 18 19  1  0  0  0  0
 19 20  1  6  0  0  0
 19 21  1  0  0  0  0
 21 22  1  6  0  0  0
 23 20  1  6  0  0  0
 23 24  1  0  0  0  0
 23 28  1  0  0  0  0
 24 25  1  1  0  0  0
 24 26  1  0  0  0  0
 26 27  1  0  0  0  0
 26 32  1  1  0  0  0
 27 28  1  0  0  0  0
 27 29  1  6  0  0  0
 29 30  1  0  0  0  0
 31 32  1  6  0  0  0
 31 33  1  0  0  0  0
 31 39  1  0  0  0  0
 33 36  1  0  0  0  0
 33 41  1  6  0  0  0
 34 40  1  0  0  0  0
 35 48  1  0  0  0  0
 36 37  1  0  0  0  0
 36 45  1  1  0  0  0
 37 38  1  0  0  0  0
 37 44  1  6  0  0  0
 38 39  1  0  0  0  0
 38 40  1  6  0  0  0
 43 47  1  0  0  0  0
 46 48  1  0  0  0  0
 48 43  1  1  0  0  0
M  END
>  <CHROM.1>
-167.32836821,-145.93585529,-139.93965607,-174.48907068,-73.61125198,-153.75510491
-86.84182053,-72.11366133,-107.38642986,-24.96381816,-163.93578977,-85.45185689
104.86776064,26.10823408,13.27229333,9.09911622,1.08307096,-0.62442195,2.71721437

>  <Name>
ligand

>  <RI>
0

>  <Rbt.Current_Directory>
/home/itssahil/PROJECTS/Mol_Feturizer/New_Systems/rnas/4PDQ

>  <Rbt.Executable>
rbdock ($Id: //depot/dev/client3/rdock/2013.1/src/exe/rbdock.cxx#4 $)

>  <Rbt.Library>
libRbt.so (2013.1, Build901 2013/11/27)

>  <Rbt.Parameter_File>
/export/apps/rDock/src/rDock_2013.1_src/data/scripts/dock_solv.prm

>  <Rbt.Receptor>
prm/blind_docking_100.prm

>  <SCORE>
19.6216

>  <SCORE.INTER>
6.86566

>  <SCORE.INTER.CONST>
1

>  <SCORE.INTER.POLAR>
0

>  <SCORE.INTER.ROT>
13

>  <SCORE.INTER.SOLV>
38.171

>  <SCORE.INTER.VDW>
-20.4132

>  <SCORE.INTER.norm>
0.140116

>  <SCORE.INTRA>
3.23269

>  <SCORE.INTRA.DIHEDRAL>
-4.42239

>  <SCORE.INTRA.DIHEDRAL.0>
34.5115

>  <SCORE.INTRA.POLAR>
0

>  <SCORE.INTRA.POLAR.0>
0

>  <SCORE.INTRA.REPUL>
0

>  <SCORE.INTRA.REPUL.0>
0

>  <SCORE.INTRA.SOLV>
0.680368

>  <SCORE.INTRA.SOLV.lig_0>
-122.812

>  <SCORE.INTRA.VDW>
5.1037

>  <SCORE.INTRA.VDW.0>
-7.46208

>  <SCORE.INTRA.norm>
0.0659732

>  <SCORE.RESTR>
9.52325

>  <SCORE.RESTR.CAVITY>
9.52325

>  <SCORE.RESTR.norm>
0.194352

>  <SCORE.SYSTEM>
0

>  <SCORE.SYSTEM.CONST>
0

>  <SCORE.SYSTEM.DIHEDRAL>
0

>  <SCORE.SYSTEM.SOLV>
0

>  <SCORE.SYSTEM.norm>
0

>  <SCORE.heavy>
49

>  <SCORE.norm>
0.400441

>  <RMSD>
11.078

$$$$
ligand
 OpenBabel11021811513D
libRbt.so/2013.1/901 2013/11/27
 49 52  0  0  0  0  0  0  0  0999 V2000
   26.8032   16.3072   11.0417 C   0  0  2  0  0  0  0  0  0  0  0  0
   25.8663   15.2878   11.2292 O   0  0  0  0  0  0  0  0  0  0  0  0
   27.2961   16.8387   12.4388 C   0  0  2  0  0  0  0  0  0  0  0  0
   27.9131   15.6891   13.2200 N   0  0  0  0  0  0  0  0  0  0  0  0
   25.1814    9.6469   10.4900 O   0  0  0  0  0  0  0  0  0  0  0  0
   26.1234   17.4829   13.2144 C   0  0  2  0  0  0  0  0  0  0  0  0
   28.0284    4.9935   11.5427 N   0  0  0  0  0  0  0  0  0  0  0  0
   25.5042   18.6276   12.3972 C   0  0  2  0  0  0  0  0  0  0  0  0
   24.9962   18.1294   10.9783 C   0  0  2  0  0  0  0  0  0  0  0  0
   26.1729   17.4537   10.2717 O   0  0  0  0  0  0  0  0  0  0  0  0
   24.4214   19.3041   10.1350 C   0  0  0  0  0  0  0  0  0  0  0  0
   24.0779   18.9420    8.8065 N   0  0  0  0  0  0  0  0  0  0  0  0
   27.4226   11.2457   11.4362 C   0  0  2  0  0  0  0  0  0  0  0  0
   27.4688    9.7585   11.3226 N   0  0  0  0  0  0  0  0  0  0  0  0
   26.0302   11.6196   12.1418 C   0  0  0  0  0  0  0  0  0  0  0  0
   25.9088   13.1785   12.3243 C   0  0  2  0  0  0  0  0  0  0  0  0
   24.6278   13.5354   12.9518 N   0  0  0  0  0  0  0  0  0  0  0  0
   25.9893   13.8842   10.9559 C   0  0  2  0  0  0  0  0  0  0  0  0
   27.3506   13.5327   10.2306 C   0  0  2  0  0  0  0  0  0  0  0  0
   27.3333   14.2569    8.9443 O   0  0  0  0  0  0  0  0  0  0  0  0
   27.4203   11.9383    9.9971 C   0  0  1  0  0  0  0  0  0  0  0  0
   28.6202   11.6505    9.3514 O   0  0  0  0  0  0  0  0  0  0  0  0
   26.3110   14.4721    8.1883 C   0  0  1  0  0  0  0  0  0  0  0  0
   26.5629   15.3926    6.9579 C   0  0  2  0  0  0  0  0  0  0  0  0
   26.2938   16.7054    7.3371 O   0  0  0  0  0  0  0  0  0  0  0  0
   25.5184   14.8591    6.0677 C   0  0  1  0  0  0  0  0  0  0  0  0
   25.4677   13.3108    6.2510 C   0  0  2  0  0  0  0  0  0  0  0  0
   25.6857   13.2663    7.6399 O   0  0  0  0  0  0  0  0  0  0  0  0
   26.3649   12.4479    5.3626 C   0  0  0  0  0  0  0  0  0  0  0  0
   27.6820   12.9351    5.5374 O   0  0  0  0  0  0  0  0  0  0  0  0
   23.4951   14.9569    7.4534 C   0  0  2  0  0  0  0  0  0  0  0  0
   24.2393   15.5323    6.4641 O   0  0  0  0  0  0  0  0  0  0  0  0
   22.0506   14.8261    7.0691 C   0  0  1  0  0  0  0  0  0  0  0  0
   22.1684   17.3106   11.2695 N   0  0  0  0  0  0  0  0  0  0  0  0
   27.5937    7.1766    9.9597 O   0  0  0  0  0  0  0  0  0  0  0  0
   21.2432   14.2033    8.2734 C   0  0  2  0  0  0  0  0  0  0  0  0
   21.3676   15.0219    9.6050 C   0  0  1  0  0  0  0  0  0  0  0  0
   22.7638   15.1258    9.9589 C   0  0  1  0  0  0  0  0  0  0  0  0
   23.5633   15.7223    8.8160 O   0  0  0  0  0  0  0  0  0  0  0  0
   22.9412   15.9886   11.2845 C   0  0  0  0  0  0  0  0  0  0  0  0
   21.5084   16.0967    6.7901 N   0  0  0  0  0  0  0  0  0  0  0  0
   26.5144   17.8965   14.2055 O   0  0  0  0  0  0  0  0  0  0  0  0
   26.5972    7.0558   11.9975 C   0  0  0  0  0  0  0  0  0  0  0  0
   20.9513   16.0758    9.4216 O   0  0  0  0  0  0  0  0  0  0  0  0
   21.6698   13.1566    8.4873 O   0  0  0  0  0  0  0  0  0  0  0  0
   26.2304    9.0768   10.8220 C   0  0  0  0  0  0  0  0  0  0  0  0
   26.8774    5.7081   11.9638 C   0  0  0  0  0  0  0  0  0  0  0  0
   26.4405    7.4765   10.7429 C   0  0  1  0  0  0  0  0  0  0  0  0
   26.4587   19.6392   12.1902 F   0  0  0  0  0  0  0  0  0  0  0  0
  1  2  1  1  0  0  0
  1 10  1  0  0  0  0
  1  3  1  0  0  0  0
  3  4  1  1  0  0  0
  3  6  1  0  0  0  0
  5 46  2  0  0  0  0
  6 42  1  1  0  0  0
  6  8  1  0  0  0  0
  7 47  1  0  0  0  0
  8  9  1  0  0  0  0
  8 49  1  6  0  0  0
  9 10  1  0  0  0  0
  9 11  1  6  0  0  0
 11 12  1  0  0  0  0
 13 14  1  6  0  0  0
 13 15  1  0  0  0  0
 13 21  1  0  0  0  0
 14 46  1  0  0  0  0
 15 16  1  0  0  0  0
 16 17  1  6  0  0  0
 16 18  1  0  0  0  0
 18  2  1  1  0  0  0
 18 19  1  0  0  0  0
 19 20  1  6  0  0  0
 19 21  1  0  0  0  0
 21 22  1  1  0  0  0
 23 20  1  6  0  0  0
 23 24  1  0  0  0  0
 23 28  1  0  0  0  0
 24 25  1  1  0  0  0
 24 26  1  0  0  0  0
 26 27  1  0  0  0  0
 26 32  1  1  0  0  0
 27 28  1  0  0  0  0
 27 29  1  6  0  0  0
 29 30  1  0  0  0  0
 31 32  1  6  0  0  0
 31 33  1  0  0  0  0
 31 39  1  0  0  0  0
 33 36  1  0  0  0  0
 33 41  1  1  0  0  0
 34 40  1  0  0  0  0
 35 48  1  0  0  0  0
 36 37  1  0  0  0  0
 36 45  1  1  0  0  0
 37 38  1  0  0  0  0
 37 44  1  6  0  0  0
 38 39  1  0  0  0  0
 38 40  1  1  0  0  0
 43 47  1  0  0  0  0
 46 48  1  0  0  0  0
 48 43  1  1  0  0  0
M  END
>  <CHROM.1>
-110.82158522,114.97937706,173.91920638,45.63665943,-36.11039663,173.97680013
-87.91230677,54.62003205,-131.14035609,-48.31047491,70.99581015,-56.22298683
124.70941719,25.42343074,14.01564012,9.89622261,-2.15561977,1.03716181,-2.69246847

>  <Name>
ligand

>  <RI>
0

>  <Rbt.Current_Directory>
/home/itssahil/PROJECTS/Mol_Feturizer/New_Systems/rnas/4PDQ

>  <Rbt.Executable>
rbdock ($Id: //depot/dev/client3/rdock/2013.1/src/exe/rbdock.cxx#4 $)

>  <Rbt.Library>
libRbt.so (2013.1, Build901 2013/11/27)

>  <Rbt.Parameter_File>
/export/apps/rDock/src/rDock_2013.1_src/data/scripts/dock_solv.prm

>  <Rbt.Receptor>
prm/blind_docking_60.prm

>  <SCORE>
11.8089

>  <SCORE.INTER>
3.58483

>  <SCORE.INTER.CONST>
1

>  <SCORE.INTER.POLAR>
0

>  <SCORE.INTER.ROT>
13

>  <SCORE.INTER.SOLV>
30.6126

>  <SCORE.INTER.VDW>
-20.081

>  <SCORE.INTER.norm>
0.0731599

>  <SCORE.INTRA>
6.69301

>  <SCORE.INTRA.DIHEDRAL>
-5.96111

>  <SCORE.INTRA.DIHEDRAL.0>
34.5115

>  <SCORE.INTRA.POLAR>
0

>  <SCORE.INTRA.POLAR.0>
0

>  <SCORE.INTRA.REPUL>
0.0072949

>  <SCORE.INTRA.REPUL.0>
0

>  <SCORE.INTRA.SOLV>
10.8551

>  <SCORE.INTRA.SOLV.lig_0>
-122.812

>  <SCORE.INTRA.VDW>
4.20951

>  <SCORE.INTRA.VDW.0>
-7.46208

>  <SCORE.INTRA.norm>
0.136592

>  <SCORE.RESTR>
1.53111

>  <SCORE.RESTR.CAVITY>
1.53111

>  <SCORE.RESTR.norm>
0.0312471

>  <SCORE.SYSTEM>
0

>  <SCORE.SYSTEM.CONST>
0

>  <SCORE.SYSTEM.DIHEDRAL>
0

>  <SCORE.SYSTEM.SOLV>
0

>  <SCORE.SYSTEM.norm>
0

>  <SCORE.heavy>
49

>  <SCORE.norm>
0.240999

>  <RMSD>
11.078

$$$$
ligand
 OpenBabel11021811513D
libRbt.so/2013.1/901 2013/11/27
 49 52  0  0  0  0  0  0  0  0999 V2000
   26.1247   13.1246    9.4923 C   0  0  2  0  0  0  0  0  0  0  0  0
   26.5880   12.1402   10.3689 O   0  0  0  0  0  0  0  0  0  0  0  0
   26.9866   14.4311    9.6578 C   0  0  2  0  0  0  0  0  0  0  0  0
   28.4438   14.1070    9.3684 N   0  0  0  0  0  0  0  0  0  0  0  0
   23.8028    7.2908   11.7566 O   0  0  0  0  0  0  0  0  0  0  0  0
   26.8101   15.0165   11.0784 C   0  0  2  0  0  0  0  0  0  0  0  0
   21.9117    4.6037   13.9760 N   0  0  0  0  0  0  0  0  0  0  0  0
   25.3286   15.3170   11.3546 C   0  0  2  0  0  0  0  0  0  0  0  0
   24.4259   14.0211   11.1952 C   0  0  2  0  0  0  0  0  0  0  0  0
   24.6734   13.4484    9.7984 O   0  0  0  0  0  0  0  0  0  0  0  0
   22.9207   14.3446   11.4218 C   0  0  0  0  0  0  0  0  0  0  0  0
   22.0570   13.2411   11.1975 N   0  0  0  0  0  0  0  0  0  0  0  0
   26.5013    7.8269   10.8051 C   0  0  2  0  0  0  0  0  0  0  0  0
   26.0388    6.4747   11.2349 N   0  0  0  0  0  0  0  0  0  0  0  0
   26.4364    8.7777   12.0967 C   0  0  0  0  0  0  0  0  0  0  0  0
   26.9339   10.2272   11.7366 C   0  0  2  0  0  0  0  0  0  0  0  0
   26.8601   11.1135   12.9074 N   0  0  0  0  0  0  0  0  0  0  0  0
   26.0593   10.8296   10.6190 C   0  0  2  0  0  0  0  0  0  0  0  0
   26.0978    9.9128    9.3303 C   0  0  2  0  0  0  0  0  0  0  0  0
   25.2427   10.5750    8.3255 O   0  0  0  0  0  0  0  0  0  0  0  0
   25.5224    8.4547    9.7105 C   0  0  1  0  0  0  0  0  0  0  0  0
   25.5572    7.6663    8.5630 O   0  0  0  0  0  0  0  0  0  0  0  0
   25.4425   10.6322    7.0528 C   0  0  1  0  0  0  0  0  0  0  0  0
   26.3213    9.4942    6.4553 C   0  0  2  0  0  0  0  0  0  0  0  0
   27.6477    9.9186    6.4697 O   0  0  0  0  0  0  0  0  0  0  0  0
   25.7687    9.4843    5.0905 C   0  0  1  0  0  0  0  0  0  0  0  0
   24.2275    9.7043    5.1886 C   0  0  2  0  0  0  0  0  0  0  0  0
   24.2252   10.6409    6.2380 O   0  0  0  0  0  0  0  0  0  0  0  0
   23.3292    8.4748    5.3311 C   0  0  0  0  0  0  0  0  0  0  0  0
   23.5848    7.9444    6.6179 O   0  0  0  0  0  0  0  0  0  0  0  0
   27.6386   10.2805    3.7147 C   0  0  2  0  0  0  0  0  0  0  0  0
   26.4648   10.5813    4.3434 O   0  0  0  0  0  0  0  0  0  0  0  0
   28.2279   11.4724    3.0195 C   0  0  1  0  0  0  0  0  0  0  0  0
   27.8561    6.3210    1.5707 N   0  0  0  0  0  0  0  0  0  0  0  0
   25.1633    3.9385   11.4741 O   0  0  0  0  0  0  0  0  0  0  0  0
   29.5507   11.0424    2.2743 C   0  0  2  0  0  0  0  0  0  0  0  0
   29.3436    9.8758    1.2471 C   0  0  1  0  0  0  0  0  0  0  0  0
   28.7857    8.7386    1.9406 C   0  0  1  0  0  0  0  0  0  0  0  0
   27.5115    9.1261    2.6666 O   0  0  0  0  0  0  0  0  0  0  0  0
   28.5173    7.5424    0.9256 C   0  0  0  0  0  0  0  0  0  0  0  0
   27.3243   11.9652    2.0567 N   0  0  0  0  0  0  0  0  0  0  0  0
   27.4122   15.9845   11.1603 O   0  0  0  0  0  0  0  0  0  0  0  0
   24.4014    4.7716   13.4452 C   0  0  0  0  0  0  0  0  0  0  0  0
   28.5981   10.2262    0.4478 O   0  0  0  0  0  0  0  0  0  0  0  0
   30.2976   10.6614    3.0618 O   0  0  0  0  0  0  0  0  0  0  0  0
   24.6192    6.3600   11.7045 C   0  0  0  0  0  0  0  0  0  0  0  0
   23.2126    5.1684   14.0157 C   0  0  0  0  0  0  0  0  0  0  0  0
   24.2669    4.8390   12.1213 C   0  0  1  0  0  0  0  0  0  0  0  0
   24.8611   16.2899   10.4534 F   0  0  0  0  0  0  0  0  0  0  0  0
  1  2  1  1  0  0  0
  1 10  1  0  0  0  0
  1  3  1  0  0  0  0
  3  4  1  1  0  0  0
  3  6  1  0  0  0  0
  5 46  2  0  0  0  0
  6 42  1  6  0  0  0
  6  8  1  0  0  0  0
  7 47  1  0  0  0  0
  8  9  1  0  0  0  0
  8 49  1  6  0  0  0
  9 10  1  0  0  0  0
  9 11  1  6  0  0  0
 11 12  1  0  0  0  0
 13 14  1  1  0  0  0
 13 15  1  0  0  0  0
 13 21  1  0  0  0  0
 14 46  1  0  0  0  0
 15 16  1  0  0  0  0
 16 17  1  1  0  0  0
 16 18  1  0  0  0  0
 18  2  1  6  0  0  0
 18 19  1  0  0  0  0
 19 20  1  6  0  0  0
 19 21  1  0  0  0  0
 21 22  1  6  0  0  0
 23 20  1  1  0  0  0
 23 24  1  0  0  0  0
 23 28  1  0  0  0  0
 24 25  1  6  0  0  0
 24 26  1  0  0  0  0
 26 27  1  0  0  0  0
 26 32  1  6  0  0  0
 27 28  1  0  0  0  0
 27 29  1  1  0  0  0
 29 30  1  0  0  0  0
 31 32  1  6  0  0  0
 31 33  1  0  0  0  0
 31 39  1  0  0  0  0
 33 36  1  0  0  0  0
 33 41  1  6  0  0  0
 34 40  1  0  0  0  0
 35 48  1  0  0  0  0
 36 37  1  0  0  0  0
 36 45  1  1  0  0  0
 37 38  1  0  0  0  0
 37 44  1  6  0  0  0
 38 39  1  0  0  0  0
 38 40  1  6  0  0  0
 43 47  1  0  0  0  0
 46 48  1  0  0  0  0
 48 43  1  1  0  0  0
M  END
>  <CHROM.1>
175.87951267,-176.97863780,175.74294275,63.72829242,143.12793768,24.52150344
88.20359980,68.75399555,-179.50804056,-176.97332882,64.42305781,-154.57092100
156.64616837,26.02743866,10.12347002,8.06838901,-2.86146538,-1.21468635,-2.78035089

>  <Name>
ligand

>  <RI>
0

>  <Rbt.Current_Directory>
/home/itssahil/PROJECTS/Mol_Feturizer/New_Systems/rnas/4PDQ

>  <Rbt.Executable>
rbdock ($Id: //depot/dev/client3/rdock/2013.1/src/exe/rbdock.cxx#4 $)

>  <Rbt.Library>
libRbt.so (2013.1, Build901 2013/11/27)

>  <Rbt.Parameter_File>
/export/apps/rDock/src/rDock_2013.1_src/data/scripts/dock_solv.prm

>  <Rbt.Receptor>
prm/pocket_docking_7.prm

>  <SCORE>
-9.37666

>  <SCORE.INTER>
-2.23585

>  <SCORE.INTER.CONST>
1

>  <SCORE.INTER.POLAR>
0

>  <SCORE.INTER.ROT>
13

>  <SCORE.INTER.SOLV>
21.6355

>  <SCORE.INTER.VDW>
-20.9691

>  <SCORE.INTER.norm>
-0.0456297

>  <SCORE.INTRA>
-7.14081

>  <SCORE.INTRA.DIHEDRAL>
-17.2691

>  <SCORE.INTRA.DIHEDRAL.0>
34.5115

>  <SCORE.INTRA.POLAR>
0

>  <SCORE.INTRA.POLAR.0>
0

>  <SCORE.INTRA.REPUL>
0.00247304

>  <SCORE.INTRA.REPUL.0>
0

>  <SCORE.INTRA.SOLV>
-1.97649

>  <SCORE.INTRA.SOLV.lig_0>
-122.812

>  <SCORE.INTRA.VDW>
2.4696

>  <SCORE.INTRA.VDW.0>
-7.46208

>  <SCORE.INTRA.norm>
-0.145731

>  <SCORE.RESTR>
0

>  <SCORE.RESTR.CAVITY>
0

>  <SCORE.RESTR.norm>
0

>  <SCORE.SYSTEM>
0

>  <SCORE.SYSTEM.CONST>
0

>  <SCORE.SYSTEM.DIHEDRAL>
0

>  <SCORE.SYSTEM.SOLV>
0

>  <SCORE.SYSTEM.norm>
0

>  <SCORE.heavy>
49

>  <SCORE.norm>
-0.19136

>  <RMSD>
11.126

$$$$
ligand
 OpenBabel11021811513D
libRbt.so/2013.1/901 2013/11/27
 49 52  0  0  0  0  0  0  0  0999 V2000
   27.4612   10.5324   11.1651 C   0  0  2  0  0  0  0  0  0  0  0  0
   26.5226   11.5608   11.0489 O   0  0  0  0  0  0  0  0  0  0  0  0
   26.7235    9.1680   11.4320 C   0  0  2  0  0  0  0  0  0  0  0  0
   25.7672    8.8854   10.2839 N   0  0  0  0  0  0  0  0  0  0  0  0
   25.9919   16.3280    7.6869 O   0  0  0  0  0  0  0  0  0  0  0  0
   25.9801    9.2137   12.7874 C   0  0  2  0  0  0  0  0  0  0  0  0
   24.6034   19.8948    4.2553 N   0  0  0  0  0  0  0  0  0  0  0  0
   26.9629    9.5200   13.9284 C   0  0  2  0  0  0  0  0  0  0  0  0
   27.7287   10.8904   13.6929 C   0  0  2  0  0  0  0  0  0  0  0  0
   28.4024   10.8193   12.3212 O   0  0  0  0  0  0  0  0  0  0  0  0
   28.7619   11.1665   14.8234 C   0  0  0  0  0  0  0  0  0  0  0  0
   29.8126   10.2145   14.8849 N   0  0  0  0  0  0  0  0  0  0  0  0
   27.3967   13.7908    7.4342 C   0  0  2  0  0  0  0  0  0  0  0  0
   27.2087   14.7387    6.2971 N   0  0  0  0  0  0  0  0  0  0  0  0
   26.0496   12.9261    7.5521 C   0  0  0  0  0  0  0  0  0  0  0  0
   26.1715   11.8767    8.7193 C   0  0  2  0  0  0  0  0  0  0  0  0
   24.9354   11.0915    8.8506 N   0  0  0  0  0  0  0  0  0  0  0  0
   26.4316   12.5953   10.0583 C   0  0  2  0  0  0  0  0  0  0  0  0
   27.7526   13.4617    9.9747 C   0  0  2  0  0  0  0  0  0  0  0  0
   27.9152   14.0974   11.2971 O   0  0  0  0  0  0  0  0  0  0  0  0
   27.5764   14.5704    8.8165 C   0  0  1  0  0  0  0  0  0  0  0  0
   28.7448   15.3266    8.7641 O   0  0  0  0  0  0  0  0  0  0  0  0
   27.2204   15.0697   11.7817 C   0  0  1  0  0  0  0  0  0  0  0  0
   26.7265   14.8822   13.2465 C   0  0  2  0  0  0  0  0  0  0  0  0
   25.4698   14.2829   13.2062 O   0  0  0  0  0  0  0  0  0  0  0  0
   26.6399   16.3007   13.6317 C   0  0  1  0  0  0  0  0  0  0  0  0
   27.8540   17.0505   13.0014 C   0  0  2  0  0  0  0  0  0  0  0  0
   27.8911   16.3718   11.7699 O   0  0  0  0  0  0  0  0  0  0  0  0
   29.1511   17.1321   13.8075 C   0  0  0  0  0  0  0  0  0  0  0  0
   29.2548   15.9113   14.5158 O   0  0  0  0  0  0  0  0  0  0  0  0
   25.1684   16.9296   11.7710 C   0  0  2  0  0  0  0  0  0  0  0  0
   25.3219   16.7989   13.1211 O   0  0  0  0  0  0  0  0  0  0  0  0
   24.4315   18.1845   11.4057 C   0  0  1  0  0  0  0  0  0  0  0  0
   22.1273   14.2587    9.7070 N   0  0  0  0  0  0  0  0  0  0  0  0
   26.0504   16.1184    4.1289 O   0  0  0  0  0  0  0  0  0  0  0  0
   24.2456   18.2451    9.8399 C   0  0  2  0  0  0  0  0  0  0  0  0
   23.5018   16.9992    9.2456 C   0  0  1  0  0  0  0  0  0  0  0  0
   24.2341   15.8065    9.6015 C   0  0  1  0  0  0  0  0  0  0  0  0
   24.4269   15.7245   11.1039 O   0  0  0  0  0  0  0  0  0  0  0  0
   23.4898   14.5102    9.0548 C   0  0  0  0  0  0  0  0  0  0  0  0
   23.1526   18.1829   11.9979 N   0  0  0  0  0  0  0  0  0  0  0  0
   25.4875    8.1999   12.9769 O   0  0  0  0  0  0  0  0  0  0  0  0
   25.3690   17.8006    5.4949 C   0  0  0  0  0  0  0  0  0  0  0  0
   22.4550   16.9461    9.7134 O   0  0  0  0  0  0  0  0  0  0  0  0
   25.2889   18.2697    9.3561 O   0  0  0  0  0  0  0  0  0  0  0  0
   26.4585   16.0048    6.5853 C   0  0  0  0  0  0  0  0  0  0  0  0
   25.4556   18.7998    4.5515 C   0  0  0  0  0  0  0  0  0  0  0  0
   26.3495   16.9285    5.2637 C   0  0  1  0  0  0  0  0  0  0  0  0
   27.9200    8.4943   14.0244 F   0  0  0  0  0  0  0  0  0  0  0  0
  1  2  1  1  0  0  0
  1 10  1  0  0  0  0
  1  3  1  0  0  0  0
  3  4  1  6  0  0  0
  3  6  1  0  0  0  0
  5 46  2  0  0  0  0
  6 42  1  1  0  0  0
  6  8  1  0  0  0  0
  7 47  1  0  0  0  0
  8  9  1  0  0  0  0
  8 49  1  6  0  0  0
  9 10  1  0  0  0  0
  9 11  1  1  0  0  0
 11 12  1  0  0  0  0
 13 14  1  6  0  0  0
 13 15  1  0  0  0  0
 13 21  1  0  0  0  0
 14 46  1  0  0  0  0
 15 16  1  0  0  0  0
 16 17  1  1  0  0  0
 16 18  1  0  0  0  0
 18  2  1  1  0  0  0
 18 19  1  0  0  0  0
 19 20  1  1  0  0  0
 19 21  1  0  0  0  0
 21 22  1  6  0  0  0
 23 20  1  1  0  0  0
 23 24  1  0  0  0  0
 23 28  1  0  0  0  0
 24 25  1  6  0  0  0
 24 26  1  0  0  0  0
 26 27  1  0  0  0  0
 26 32  1  6  0  0  0
 27 28  1  0  0  0  0
 27 29  1  1  0  0  0
 29 30  1  0  0  0  0
 31 32  1  1  0  0  0
 31 33  1  0  0  0  0
 31 39  1  0  0  0  0
 33 36  1  0  0  0  0
 33 41  1  1  0  0  0
 34 40  1  0  0  0  0
 35 48  1  0  0  0  0
 36 37  1  0  0  0  0
 36 45  1  6  0  0  0
 37 38  1  0  0  0  0
 37 44  1  1  0  0  0
 38 39  1  0  0  0  0
 38 40  1  1  0  0  0
 43 47  1  0  0  0  0
 46 48  1  0  0  0  0
 48 43  1  1  0  0  0
M  END
>  <CHROM.1>
-133.13209758,63.72298964,63.78550497,82.47949901,-72.87836554,133.45212754
-69.84122434,35.09488755,-138.88626497,-65.72667084,173.17190500,-74.99734116
-138.67824541,26.25993185,14.32176772,10.44723946,0.20912399,1.31647120,-2.48829925

>  <Name>
ligand

>  <RI>
0

>  <Rbt.Current_Directory>
/home/itssahil/PROJECTS/Mol_Feturizer/New_Systems/rnas/4PDQ

>  <Rbt.Executable>
rbdock ($Id: //depot/dev/client3/rdock/2013.1/src/exe/rbdock.cxx#4 $)

>  <Rbt.Library>
libRbt.so (2013.1, Build901 2013/11/27)

>  <Rbt.Parameter_File>
/export/apps/rDock/src/rDock_2013.1_src/data/scripts/dock_solv.prm

>  <Rbt.Receptor>
prm/blind_docking_80.prm

>  <SCORE>
27.0013

>  <SCORE.INTER>
21.6342

>  <SCORE.INTER.CONST>
1

>  <SCORE.INTER.POLAR>
0

>  <SCORE.INTER.ROT>
13

>  <SCORE.INTER.SOLV>
36.9894

>  <SCORE.INTER.VDW>
-10.1737

>  <SCORE.INTER.norm>
0.441514

>  <SCORE.INTRA>
1.68472

>  <SCORE.INTRA.DIHEDRAL>
-10.2957

>  <SCORE.INTRA.DIHEDRAL.0>
34.5115

>  <SCORE.INTRA.POLAR>
0

>  <SCORE.INTRA.POLAR.0>
0

>  <SCORE.INTRA.REPUL>
0

>  <SCORE.INTRA.REPUL.0>
0

>  <SCORE.INTRA.SOLV>
5.97942

>  <SCORE.INTRA.SOLV.lig_0>
-122.812

>  <SCORE.INTRA.VDW>
3.84289

>  <SCORE.INTRA.VDW.0>
-7.46208

>  <SCORE.INTRA.norm>
0.0343821

>  <SCORE.RESTR>
3.6824

>  <SCORE.RESTR.CAVITY>
3.6824

>  <SCORE.RESTR.norm>
0.075151

>  <SCORE.SYSTEM>
0

>  <SCORE.SYSTEM.CONST>
0

>  <SCORE.SYSTEM.DIHEDRAL>
0

>  <SCORE.SYSTEM.SOLV>
0

>  <SCORE.SYSTEM.norm>
0

>  <SCORE.heavy>
49

>  <SCORE.norm>
0.551047

>  <RMSD>
11.140

$$$$
ligand
 OpenBabel11021811513D
libRbt.so/2013.1/901 2013/11/27
 49 52  0  0  0  0  0  0  0  0999 V2000
   28.1649    5.2501    9.2504 C   0  0  2  0  0  0  0  0  0  0  0  0
   27.0467    5.9128    9.7625 O   0  0  0  0  0  0  0  0  0  0  0  0
   27.8102    3.7405    8.9812 C   0  0  2  0  0  0  0  0  0  0  0  0
   26.6540    3.6681    7.9961 N   0  0  0  0  0  0  0  0  0  0  0  0
   22.5883   10.9718    9.3421 O   0  0  0  0  0  0  0  0  0  0  0  0
   27.4672    3.0229   10.3076 C   0  0  2  0  0  0  0  0  0  0  0  0
   21.9526   15.0146    8.1528 N   0  0  0  0  0  0  0  0  0  0  0  0
   28.6419    3.1266   11.2930 C   0  0  2  0  0  0  0  0  0  0  0  0
   29.0304    4.6371   11.5881 C   0  0  2  0  0  0  0  0  0  0  0  0
   29.3082    5.3185   10.2469 O   0  0  0  0  0  0  0  0  0  0  0  0
   30.2555    4.7336   12.5427 C   0  0  0  0  0  0  0  0  0  0  0  0
   30.0613    4.0887   13.7919 N   0  0  0  0  0  0  0  0  0  0  0  0
   25.2728    9.8634    9.5418 C   0  0  2  0  0  0  0  0  0  0  0  0
   24.9373   11.2678    9.9189 N   0  0  0  0  0  0  0  0  0  0  0  0
   25.1103    8.9704   10.8656 C   0  0  0  0  0  0  0  0  0  0  0  0
   25.4234    7.4601   10.5505 C   0  0  2  0  0  0  0  0  0  0  0  0
   25.2975    6.6343   11.7605 N   0  0  0  0  0  0  0  0  0  0  0  0
   26.8611    7.3137   10.0135 C   0  0  2  0  0  0  0  0  0  0  0  0
   27.0566    8.1865    8.7085 C   0  0  2  0  0  0  0  0  0  0  0  0
   28.4509    7.9730    8.2728 O   0  0  0  0  0  0  0  0  0  0  0  0
   26.7942    9.7355    9.0732 C   0  0  1  0  0  0  0  0  0  0  0  0
   26.9786   10.4869    7.9152 O   0  0  0  0  0  0  0  0  0  0  0  0
   28.8772    7.8631    7.0607 C   0  0  1  0  0  0  0  0  0  0  0  0
   28.9275    9.1855    6.2401 C   0  0  2  0  0  0  0  0  0  0  0  0
   27.7118    9.3293    5.5759 O   0  0  0  0  0  0  0  0  0  0  0  0
   30.0140    8.8270    5.3133 C   0  0  1  0  0  0  0  0  0  0  0  0
   31.0871    8.0227    6.1102 C   0  0  2  0  0  0  0  0  0  0  0  0
   30.2154    7.2821    6.9288 O   0  0  0  0  0  0  0  0  0  0  0  0
   32.2142    8.7998    6.7920 C   0  0  0  0  0  0  0  0  0  0  0  0
   32.8154    7.9041    7.7079 O   0  0  0  0  0  0  0  0  0  0  0  0
   28.9490    6.7662    4.5117 C   0  0  2  0  0  0  0  0  0  0  0  0
   29.3860    8.0248    4.2141 O   0  0  0  0  0  0  0  0  0  0  0  0
   30.0698    5.7689    4.5274 C   0  0  1  0  0  0  0  0  0  0  0  0
   25.4929    3.1176    3.0826 N   0  0  0  0  0  0  0  0  0  0  0  0
   23.8245   13.4147   11.5289 O   0  0  0  0  0  0  0  0  0  0  0  0
   29.4880    4.3328    4.8263 C   0  0  2  0  0  0  0  0  0  0  0  0
   28.3842    3.8768    3.8101 C   0  0  1  0  0  0  0  0  0  0  0  0
   27.3136    4.8459    3.8200 C   0  0  1  0  0  0  0  0  0  0  0  0
   27.8473    6.2370    3.5353 O   0  0  0  0  0  0  0  0  0  0  0  0
   26.1882    4.4453    2.7683 C   0  0  0  0  0  0  0  0  0  0  0  0
   30.7004    5.7315    3.2676 N   0  0  0  0  0  0  0  0  0  0  0  0
   27.2537    1.9212   10.0911 O   0  0  0  0  0  0  0  0  0  0  0  0
   23.9622   13.9757    9.3320 C   0  0  0  0  0  0  0  0  0  0  0  0
   28.8490    3.8471    2.7610 O   0  0  0  0  0  0  0  0  0  0  0  0
   28.9931    4.3558    5.8644 O   0  0  0  0  0  0  0  0  0  0  0  0
   23.5083   11.6920    9.7554 C   0  0  0  0  0  0  0  0  0  0  0  0
   23.1226   14.2205    8.2685 C   0  0  0  0  0  0  0  0  0  0  0  0
   23.3024   13.2274   10.2152 C   0  0  1  0  0  0  0  0  0  0  0  0
   29.7716    2.4796   10.7615 F   0  0  0  0  0  0  0  0  0  0  0  0
  1  2  1  1  0  0  0
  1 10  1  0  0  0  0
  1  3  1  0  0  0  0
  3  4  1  6  0  0  0
  3  6  1  0  0  0  0
  5 46  2  0  0  0  0
  6 42  1  6  0  0  0
  6  8  1  0  0  0  0
  7 47  1  0  0  0  0
  8  9  1  0  0  0  0
  8 49  1  6  0  0  0
  9 10  1  0  0  0  0
  9 11  1  1  0  0  0
 11 12  1  0  0  0  0
 13 14  1  1  0  0  0
 13 15  1  0  0  0  0
 13 21  1  0  0  0  0
 14 46  1  0  0  0  0
 15 16  1  0  0  0  0
 16 17  1  1  0  0  0
 16 18  1  0  0  0  0
 18  2  1  6  0  0  0
 18 19  1  0  0  0  0
 19 20  1  1  0  0  0
 19 21  1  0  0  0  0
 21 22  1  6  0  0  0
 23 20  1  1  0  0  0
 23 24  1  0  0  0  0
 23 28  1  0  0  0  0
 24 25  1  6  0  0  0
 24 26  1  0  0  0  0
 26 27  1  0  0  0  0
 26 32  1  6  0  0  0
 27 28  1  0  0  0  0
 27 29  1  1  0  0  0
 29 30  1  0  0  0  0
 31 32  1  6  0  0  0
 31 33  1  0  0  0  0
 31 39  1  0  0  0  0
 33 36  1  0  0  0  0
 33 41  1  6  0  0  0
 34 40  1  0  0  0  0
 35 48  1  0  0  0  0
 36 37  1  0  0  0  0
 36 45  1  1  0  0  0
 37 38  1  0  0  0  0
 37 44  1  6  0  0  0
 38 39  1  0  0  0  0
 38 40  1  6  0  0  0
 43 47  1  0  0  0  0
 46 48  1  0  0  0  0
 48 43  1  6  0  0  0
M  END
>  <CHROM.1>
-172.42435796,178.89664124,-58.08943437,-91.23277952,141.56112376,74.04160694
-70.62822411,164.92446418,-80.10333263,63.27026981,69.70682432,-154.38285846
126.60474720,27.57163073,7.25436244,7.92790840,0.00288385,-1.02633564,1.95230080

>  <Name>
ligand

>  <RI>
0

>  <Rbt.Current_Directory>
/home/itssahil/PROJECTS/Mol_Feturizer/New_Systems/rnas/4PDQ

>  <Rbt.Executable>
rbdock ($Id: //depot/dev/client3/rdock/2013.1/src/exe/rbdock.cxx#4 $)

>  <Rbt.Library>
libRbt.so (2013.1, Build901 2013/11/27)

>  <Rbt.Parameter_File>
/export/apps/rDock/src/rDock_2013.1_src/data/scripts/dock_solv.prm

>  <Rbt.Receptor>
prm/pocket_docking_7.prm

>  <SCORE>
-7.72365

>  <SCORE.INTER>
-1.21659

>  <SCORE.INTER.CONST>
1

>  <SCORE.INTER.POLAR>
0

>  <SCORE.INTER.ROT>
13

>  <SCORE.INTER.SOLV>
12.9304

>  <SCORE.INTER.VDW>
-17.3879

>  <SCORE.INTER.norm>
-0.0248284

>  <SCORE.INTRA>
-6.50706

>  <SCORE.INTRA.DIHEDRAL>
-21.0828

>  <SCORE.INTRA.DIHEDRAL.0>
34.5115

>  <SCORE.INTRA.POLAR>
0

>  <SCORE.INTRA.POLAR.0>
0

>  <SCORE.INTRA.REPUL>
0.0632662

>  <SCORE.INTRA.REPUL.0>
0

>  <SCORE.INTRA.SOLV>
-0.181242

>  <SCORE.INTRA.SOLV.lig_0>
-122.812

>  <SCORE.INTRA.VDW>
3.80861

>  <SCORE.INTRA.VDW.0>
-7.46208

>  <SCORE.INTRA.norm>
-0.132797

>  <SCORE.RESTR>
0

>  <SCORE.RESTR.CAVITY>
0

>  <SCORE.RESTR.norm>
0

>  <SCORE.SYSTEM>
0

>  <SCORE.SYSTEM.CONST>
0

>  <SCORE.SYSTEM.DIHEDRAL>
0

>  <SCORE.SYSTEM.SOLV>
0

>  <SCORE.SYSTEM.norm>
0

>  <SCORE.heavy>
49

>  <SCORE.norm>
-0.157626

>  <RMSD>
11.154

$$$$
ligand
 OpenBabel11021811513D
libRbt.so/2013.1/901 2013/11/27
 49 52  0  0  0  0  0  0  0  0999 V2000
   25.8626   11.8880    8.0077 C   0  0  2  0  0  0  0  0  0  0  0  0
   25.2931   12.8067    8.8929 O   0  0  0  0  0  0  0  0  0  0  0  0
   26.2168   10.5604    8.7754 C   0  0  2  0  0  0  0  0  0  0  0  0
   24.9500    9.9876    9.3913 N   0  0  0  0  0  0  0  0  0  0  0  0
   28.5469   15.9327   12.6092 O   0  0  0  0  0  0  0  0  0  0  0  0
   27.2946   10.8314    9.8509 C   0  0  2  0  0  0  0  0  0  0  0  0
   29.0451   14.7098   16.3948 N   0  0  0  0  0  0  0  0  0  0  0  0
   28.5564   11.4278    9.2078 C   0  0  2  0  0  0  0  0  0  0  0  0
   28.2378   12.7693    8.4214 C   0  0  2  0  0  0  0  0  0  0  0  0
   27.1323   12.4657    7.4085 O   0  0  0  0  0  0  0  0  0  0  0  0
   29.5091   13.3374    7.7266 C   0  0  0  0  0  0  0  0  0  0  0  0
   29.5430   14.7547    7.6630 N   0  0  0  0  0  0  0  0  0  0  0  0
   25.6859   15.5740   12.2081 C   0  0  2  0  0  0  0  0  0  0  0  0
   26.2663   16.2417   13.4100 N   0  0  0  0  0  0  0  0  0  0  0  0
   25.7976   13.9912   12.4507 C   0  0  0  0  0  0  0  0  0  0  0  0
   25.1821   13.2048   11.2337 C   0  0  2  0  0  0  0  0  0  0  0  0
   25.2966   11.7529   11.4349 N   0  0  0  0  0  0  0  0  0  0  0  0
   25.9219   13.5717    9.9318 C   0  0  2  0  0  0  0  0  0  0  0  0
   25.8345   15.1286    9.6648 C   0  0  2  0  0  0  0  0  0  0  0  0
   26.5604   15.3736    8.4029 O   0  0  0  0  0  0  0  0  0  0  0  0
   26.5297   15.9080   10.8939 C   0  0  1  0  0  0  0  0  0  0  0  0
   26.4497   17.2745   10.6367 O   0  0  0  0  0  0  0  0  0  0  0  0
   26.0794   15.8707    7.3146 C   0  0  1  0  0  0  0  0  0  0  0  0
   27.1277   16.2832    6.2396 C   0  0  2  0  0  0  0  0  0  0  0  0
   27.4633   17.6182    6.4521 O   0  0  0  0  0  0  0  0  0  0  0  0
   26.2888   16.1180    5.0409 C   0  0  1  0  0  0  0  0  0  0  0  0
   25.4037   14.8487    5.2382 C   0  0  2  0  0  0  0  0  0  0  0  0
   25.1307   15.0060    6.6090 O   0  0  0  0  0  0  0  0  0  0  0  0
   25.9583   13.5012    4.7738 C   0  0  0  0  0  0  0  0  0  0  0  0
   25.0168   12.5249    5.1774 O   0  0  0  0  0  0  0  0  0  0  0  0
   24.4336   17.5499    5.7697 C   0  0  2  0  0  0  0  0  0  0  0  0
   25.4811   17.3740    4.9123 O   0  0  0  0  0  0  0  0  0  0  0  0
   23.3457   18.3889    5.1667 C   0  0  1  0  0  0  0  0  0  0  0  0
   23.2938   18.9855   10.6510 N   0  0  0  0  0  0  0  0  0  0  0  0
   28.0564   18.5095   14.6763 O   0  0  0  0  0  0  0  0  0  0  0  0
   22.1945   18.5935    6.2264 C   0  0  2  0  0  0  0  0  0  0  0  0
   22.6825   19.2399    7.5690 C   0  0  1  0  0  0  0  0  0  0  0  0
   23.7208   18.4107    8.1345 C   0  0  1  0  0  0  0  0  0  0  0  0
   24.8410   18.1981    7.1340 O   0  0  0  0  0  0  0  0  0  0  0  0
   24.2780   19.0533    9.4798 C   0  0  0  0  0  0  0  0  0  0  0  0
   23.8509   19.6580    4.8197 N   0  0  0  0  0  0  0  0  0  0  0  0
   27.5637    9.8469   10.3654 O   0  0  0  0  0  0  0  0  0  0  0  0
   27.4695   16.6276   15.8049 C   0  0  0  0  0  0  0  0  0  0  0  0
   23.1200   20.2748    7.3338 O   0  0  0  0  0  0  0  0  0  0  0  0
   21.7656   17.5600    6.4933 O   0  0  0  0  0  0  0  0  0  0  0  0
   27.7609   16.3467   13.4732 C   0  0  0  0  0  0  0  0  0  0  0  0
   27.8171   15.3124   16.0185 C   0  0  0  0  0  0  0  0  0  0  0  0
   28.2331   17.1020   14.8215 C   0  0  1  0  0  0  0  0  0  0  0  0
   29.1111   10.5088    8.2994 F   0  0  0  0  0  0  0  0  0  0  0  0
  1  2  1  1  0  0  0
  1 10  1  0  0  0  0
  1  3  1  0  0  0  0
  3  4  1  1  0  0  0
  3  6  1  0  0  0  0
  5 46  2  0  0  0  0
  6 42  1  6  0  0  0
  6  8  1  0  0  0  0
  7 47  1  0  0  0  0
  8  9  1  0  0  0  0
  8 49  1  6  0  0  0
  9 10  1  0  0  0  0
  9 11  1  6  0  0  0
 11 12  1  0  0  0  0
 13 14  1  1  0  0  0
 13 15  1  0  0  0  0
 13 21  1  0  0  0  0
 14 46  1  0  0  0  0
 15 16  1  0  0  0  0
 16 17  1  1  0  0  0
 16 18  1  0  0  0  0
 18  2  1  6  0  0  0
 18 19  1  0  0  0  0
 19 20  1  6  0  0  0
 19 21  1  0  0  0  0
 21 22  1  6  0  0  0
 23 20  1  1  0  0  0
 23 24  1  0  0  0  0
 23 28  1  0  0  0  0
 24 25  1  1  0  0  0
 24 26  1  0  0  0  0
 26 27  1  0  0  0  0
 26 32  1  1  0  0  0
 27 28  1  0  0  0  0
 27 29  1  1  0  0  0
 29 30  1  0  0  0  0
 31 32  1  6  0  0  0
 31 33  1  0  0  0  0
 31 39  1  0  0  0  0
 33 36  1  0  0  0  0
 33 41  1  1  0  0  0
 34 40  1  0  0  0  0
 35 48  1  0  0  0  0
 36 37  1  0  0  0  0
 36 45  1  1  0  0  0
 37 38  1  0  0  0  0
 37 44  1  6  0  0  0
 38 39  1  0  0  0  0
 38 40  1  1  0  0  0
 43 47  1  0  0  0  0
 46 48  1  0  0  0  0
 48 43  1  1  0  0  0
M  END
>  <CHROM.1>
72.90577364,-122.52336086,-146.96261333,80.60944720,119.16791730,168.10084460
-74.90071094,174.88673761,-151.23006329,71.01123408,59.96624424,-171.82810371
100.98388151,26.08442529,15.26735724,9.12452311,-0.41023454,1.11517627,-2.22081378

>  <Name>
ligand

>  <RI>
0

>  <Rbt.Current_Directory>
/home/itssahil/PROJECTS/Mol_Feturizer/New_Systems/rnas/4PDQ

>  <Rbt.Executable>
rbdock ($Id: //depot/dev/client3/rdock/2013.1/src/exe/rbdock.cxx#4 $)

>  <Rbt.Library>
libRbt.so (2013.1, Build901 2013/11/27)

>  <Rbt.Parameter_File>
/export/apps/rDock/src/rDock_2013.1_src/data/scripts/dock_solv.prm

>  <Rbt.Receptor>
prm/blind_docking_40.prm

>  <SCORE>
12.7982

>  <SCORE.INTER>
4.27358

>  <SCORE.INTER.CONST>
1

>  <SCORE.INTER.POLAR>
0

>  <SCORE.INTER.ROT>
13

>  <SCORE.INTER.SOLV>
23.107

>  <SCORE.INTER.VDW>
-17.1199

>  <SCORE.INTER.norm>
0.087216

>  <SCORE.INTRA>
4.29452

>  <SCORE.INTRA.DIHEDRAL>
-8.94321

>  <SCORE.INTRA.DIHEDRAL.0>
34.5115

>  <SCORE.INTRA.POLAR>
0

>  <SCORE.INTRA.POLAR.0>
0

>  <SCORE.INTRA.REPUL>
0

>  <SCORE.INTRA.REPUL.0>
0

>  <SCORE.INTRA.SOLV>
9.32512

>  <SCORE.INTRA.SOLV.lig_0>
-122.812

>  <SCORE.INTRA.VDW>
4.10357

>  <SCORE.INTRA.VDW.0>
-7.46208

>  <SCORE.INTRA.norm>
0.0876433

>  <SCORE.RESTR>
4.23006

>  <SCORE.RESTR.CAVITY>
4.23006

>  <SCORE.RESTR.norm>
0.0863277

>  <SCORE.SYSTEM>
0

>  <SCORE.SYSTEM.CONST>
0

>  <SCORE.SYSTEM.DIHEDRAL>
0

>  <SCORE.SYSTEM.SOLV>
0

>  <SCORE.SYSTEM.norm>
0

>  <SCORE.heavy>
49

>  <SCORE.norm>
0.261187

>  <RMSD>
11.167

$$$$
ligand
 OpenBabel11021811513D
libRbt.so/2013.1/901 2013/11/27
 49 52  0  0  0  0  0  0  0  0999 V2000
   25.7192   16.1127    9.7973 C   0  0  2  0  0  0  0  0  0  0  0  0
   26.4339   15.4052   10.7671 O   0  0  0  0  0  0  0  0  0  0  0  0
   25.1113   17.4181   10.4327 C   0  0  2  0  0  0  0  0  0  0  0  0
   26.2389   18.2733   10.9890 N   0  0  0  0  0  0  0  0  0  0  0  0
   28.6060    9.0057   11.3235 O   0  0  0  0  0  0  0  0  0  0  0  0
   24.0842   17.0549   11.5304 C   0  0  2  0  0  0  0  0  0  0  0  0
   24.5057    7.7816   11.5518 N   0  0  0  0  0  0  0  0  0  0  0  0
   22.9663   16.1750   10.9492 C   0  0  2  0  0  0  0  0  0  0  0  0
   23.5421   14.8475   10.2966 C   0  0  2  0  0  0  0  0  0  0  0  0
   24.5894   15.2538    9.2582 O   0  0  0  0  0  0  0  0  0  0  0  0
   22.4106   13.9886    9.6614 C   0  0  0  0  0  0  0  0  0  0  0  0
   22.8083   12.6653    9.3375 N   0  0  0  0  0  0  0  0  0  0  0  0
   27.4016   11.4678   12.3044 C   0  0  2  0  0  0  0  0  0  0  0  0
   27.2228   10.1462   12.9740 N   0  0  0  0  0  0  0  0  0  0  0  0
   26.7288   12.5712   13.2564 C   0  0  0  0  0  0  0  0  0  0  0  0
   26.8944   14.0076   12.6339 C   0  0  2  0  0  0  0  0  0  0  0  0
   26.2640   15.0255   13.4873 N   0  0  0  0  0  0  0  0  0  0  0  0
   26.2322   14.0663   11.2428 C   0  0  2  0  0  0  0  0  0  0  0  0
   26.8707   12.9862   10.2792 C   0  0  2  0  0  0  0  0  0  0  0  0
   26.1794   13.1279    8.9826 O   0  0  0  0  0  0  0  0  0  0  0  0
   26.6300   11.5202   10.9071 C   0  0  1  0  0  0  0  0  0  0  0  0
   27.1915   10.5845   10.0417 O   0  0  0  0  0  0  0  0  0  0  0  0
   26.4676   13.9541    8.0354 C   0  0  1  0  0  0  0  0  0  0  0  0
   27.9505   13.9463    7.5605 C   0  0  2  0  0  0  0  0  0  0  0  0
   28.6499   14.8893    8.3098 O   0  0  0  0  0  0  0  0  0  0  0  0
   27.7395   14.4004    6.1759 C   0  0  1  0  0  0  0  0  0  0  0  0
   26.4412   13.7255    5.6354 C   0  0  2  0  0  0  0  0  0  0  0  0
   25.6759   13.7912    6.8138 O   0  0  0  0  0  0  0  0  0  0  0  0
   26.5665   12.3671    4.9440 C   0  0  0  0  0  0  0  0  0  0  0  0
   25.2455   11.9328    4.6813 O   0  0  0  0  0  0  0  0  0  0  0  0
   26.4844   16.4376    6.7218 C   0  0  2  0  0  0  0  0  0  0  0  0
   27.6367   15.8946    6.2309 O   0  0  0  0  0  0  0  0  0  0  0  0
   25.3764   16.4193    5.7103 C   0  0  1  0  0  0  0  0  0  0  0  0
   24.5146   20.7597    8.9060 N   0  0  0  0  0  0  0  0  0  0  0  0
   28.2810    7.6948   14.4537 O   0  0  0  0  0  0  0  0  0  0  0  0
   24.0954   17.1056    6.3250 C   0  0  2  0  0  0  0  0  0  0  0  0
   24.3427   18.5739    6.8168 C   0  0  1  0  0  0  0  0  0  0  0  0
   25.4048   18.5644    7.7952 C   0  0  1  0  0  0  0  0  0  0  0  0
   26.6496   17.9085    7.2283 O   0  0  0  0  0  0  0  0  0  0  0  0
   25.7204   20.0435    8.2911 C   0  0  0  0  0  0  0  0  0  0  0  0
   25.7559   17.1483    4.5654 N   0  0  0  0  0  0  0  0  0  0  0  0
   23.6281   18.0166   11.9471 O   0  0  0  0  0  0  0  0  0  0  0  0
   26.3069    7.5348   13.3415 C   0  0  0  0  0  0  0  0  0  0  0  0
   24.6718   19.2058    5.9169 O   0  0  0  0  0  0  0  0  0  0  0  0
   23.7709   16.4981    7.2464 O   0  0  0  0  0  0  0  0  0  0  0  0
   27.9044    8.9682   12.3443 C   0  0  0  0  0  0  0  0  0  0  0  0
   25.7438    7.3554   12.0978 C   0  0  0  0  0  0  0  0  0  0  0  0
   27.6279    7.6182   13.1885 C   0  0  1  0  0  0  0  0  0  0  0  0
   22.2665   16.8833    9.9563 F   0  0  0  0  0  0  0  0  0  0  0  0
  1  2  1  1  0  0  0
  1 10  1  0  0  0  0
  1  3  1  0  0  0  0
  3  4  1  1  0  0  0
  3  6  1  0  0  0  0
  5 46  2  0  0  0  0
  6 42  1  6  0  0  0
  6  8  1  0  0  0  0
  7 47  1  0  0  0  0
  8  9  1  0  0  0  0
  8 49  1  6  0  0  0
  9 10  1  0  0  0  0
  9 11  1  6  0  0  0
 11 12  1  0  0  0  0
 13 14  1  1  0  0  0
 13 15  1  0  0  0  0
 13 21  1  0  0  0  0
 14 46  1  0  0  0  0
 15 16  1  0  0  0  0
 16 17  1  1  0  0  0
 16 18  1  0  0  0  0
 18  2  1  6  0  0  0
 18 19  1  0  0  0  0
 19 20  1  6  0  0  0
 19 21  1  0  0  0  0
 21 22  1  6  0  0  0
 23 20  1  1  0  0  0
 23 24  1  0  0  0  0
 23 28  1  0  0  0  0
 24 25  1  1  0  0  0
 24 26  1  0  0  0  0
 26 27  1  0  0  0  0
 26 32  1  1  0  0  0
 27 28  1  0  0  0  0
 27 29  1  1  0  0  0
 29 30  1  0  0  0  0
 31 32  1  6  0  0  0
 31 33  1  0  0  0  0
 31 39  1  0  0  0  0
 33 36  1  0  0  0  0
 33 41  1  6  0  0  0
 34 40  1  0  0  0  0
 35 48  1  0  0  0  0
 36 37  1  0  0  0  0
 36 45  1  1  0  0  0
 37 38  1  0  0  0  0
 37 44  1  6  0  0  0
 38 39  1  0  0  0  0
 38 40  1  6  0  0  0
 43 47  1  0  0  0  0
 46 48  1  0  0  0  0
 48 43  1  1  0  0  0
M  END
>  <CHROM.1>
120.69259643,-158.08332694,-166.39430460,-173.49636776,84.86683808,52.32881026
-74.48363989,174.23433730,-78.58374653,58.17803723,-147.11463091,-175.21935075
111.08894862,25.81098525,14.24400022,9.42998038,2.17535444,1.22558230,-1.09199755

>  <Name>
ligand

>  <RI>
0

>  <Rbt.Current_Directory>
/home/itssahil/PROJECTS/Mol_Feturizer/New_Systems/rnas/4PDQ

>  <Rbt.Executable>
rbdock ($Id: //depot/dev/client3/rdock/2013.1/src/exe/rbdock.cxx#4 $)

>  <Rbt.Library>
libRbt.so (2013.1, Build901 2013/11/27)

>  <Rbt.Parameter_File>
/export/apps/rDock/src/rDock_2013.1_src/data/scripts/dock_solv.prm

>  <Rbt.Receptor>
prm/blind_docking_80.prm

>  <SCORE>
7.12891

>  <SCORE.INTER>
0.541475

>  <SCORE.INTER.CONST>
1

>  <SCORE.INTER.POLAR>
0

>  <SCORE.INTER.ROT>
13

>  <SCORE.INTER.SOLV>
33.2239

>  <SCORE.INTER.VDW>
-22.9803

>  <SCORE.INTER.norm>
0.0110505

>  <SCORE.INTRA>
3.14051

>  <SCORE.INTRA.DIHEDRAL>
-14.6725

>  <SCORE.INTRA.DIHEDRAL.0>
34.5115

>  <SCORE.INTRA.POLAR>
0

>  <SCORE.INTRA.POLAR.0>
0

>  <SCORE.INTRA.REPUL>
0.288983

>  <SCORE.INTRA.REPUL.0>
0

>  <SCORE.INTRA.SOLV>
8.29357

>  <SCORE.INTRA.SOLV.lig_0>
-122.812

>  <SCORE.INTRA.VDW>
4.88508

>  <SCORE.INTRA.VDW.0>
-7.46208

>  <SCORE.INTRA.norm>
0.064092

>  <SCORE.RESTR>
3.44693

>  <SCORE.RESTR.CAVITY>
3.44693

>  <SCORE.RESTR.norm>
0.0703456

>  <SCORE.SYSTEM>
0

>  <SCORE.SYSTEM.CONST>
0

>  <SCORE.SYSTEM.DIHEDRAL>
0

>  <SCORE.SYSTEM.SOLV>
0

>  <SCORE.SYSTEM.norm>
0

>  <SCORE.heavy>
49

>  <SCORE.norm>
0.145488

>  <RMSD>
11.172

$$$$
ligand
 OpenBabel11021811513D
libRbt.so/2013.1/901 2013/11/27
 49 52  0  0  0  0  0  0  0  0999 V2000
   23.8738   16.3556   11.1924 C   0  0  2  0  0  0  0  0  0  0  0  0
   24.0083   15.7428    9.9440 O   0  0  0  0  0  0  0  0  0  0  0  0
   23.5466   17.8833   11.0014 C   0  0  2  0  0  0  0  0  0  0  0  0
   22.2605   18.0214   10.2018 N   0  0  0  0  0  0  0  0  0  0  0  0
   25.6202    9.6065   12.6464 O   0  0  0  0  0  0  0  0  0  0  0  0
   24.7245   18.6034   10.3044 C   0  0  2  0  0  0  0  0  0  0  0  0
   27.6945    7.3039   13.0395 N   0  0  0  0  0  0  0  0  0  0  0  0
   26.0158   18.4330   11.1200 C   0  0  2  0  0  0  0  0  0  0  0  0
   26.3778   16.9026   11.3353 C   0  0  2  0  0  0  0  0  0  0  0  0
   25.1669   16.2219   11.9763 O   0  0  0  0  0  0  0  0  0  0  0  0
   27.6551   16.7373   12.2087 C   0  0  0  0  0  0  0  0  0  0  0  0
   28.5433   15.7340   11.7415 N   0  0  0  0  0  0  0  0  0  0  0  0
   25.0205   11.5759   10.5881 C   0  0  2  0  0  0  0  0  0  0  0  0
   25.2202   10.1254   10.2993 N   0  0  0  0  0  0  0  0  0  0  0  0
   23.5908   11.9826    9.9825 C   0  0  0  0  0  0  0  0  0  0  0  0
   23.2867   13.5010   10.2658 C   0  0  2  0  0  0  0  0  0  0  0  0
   21.9877   13.8911    9.6979 N   0  0  0  0  0  0  0  0  0  0  0  0
   24.3763   14.3906    9.6346 C   0  0  2  0  0  0  0  0  0  0  0  0
   25.8014   14.0120   10.2080 C   0  0  2  0  0  0  0  0  0  0  0  0
   26.7653   14.9177    9.5523 O   0  0  0  0  0  0  0  0  0  0  0  0
   26.1159   12.4716    9.8475 C   0  0  1  0  0  0  0  0  0  0  0  0
   27.3758   12.1606   10.3530 O   0  0  0  0  0  0  0  0  0  0  0  0
   26.9327   15.0874    8.2850 C   0  0  1  0  0  0  0  0  0  0  0  0
   28.1629   14.3631    7.6633 C   0  0  2  0  0  0  0  0  0  0  0  0
   29.2478   15.2354    7.7097 O   0  0  0  0  0  0  0  0  0  0  0  0
   27.6527   14.2029    6.2915 C   0  0  1  0  0  0  0  0  0  0  0  0
   26.1354   13.8505    6.3753 C   0  0  2  0  0  0  0  0  0  0  0  0
   25.7949   14.6862    7.4543 O   0  0  0  0  0  0  0  0  0  0  0  0
   25.7396   12.3760    6.4658 C   0  0  0  0  0  0  0  0  0  0  0  0
   24.3252   12.3470    6.5037 O   0  0  0  0  0  0  0  0  0  0  0  0
   26.8423   16.3224    5.3563 C   0  0  2  0  0  0  0  0  0  0  0  0
   27.9084   15.5023    5.5898 O   0  0  0  0  0  0  0  0  0  0  0  0
   27.2434   17.7670    5.3002 C   0  0  1  0  0  0  0  0  0  0  0  0
   22.7821   15.3943    7.2920 N   0  0  0  0  0  0  0  0  0  0  0  0
   24.8101    7.4170    9.9220 O   0  0  0  0  0  0  0  0  0  0  0  0
   25.9599   18.6582    5.0796 C   0  0  2  0  0  0  0  0  0  0  0  0
   24.8564   18.4545    6.1748 C   0  0  1  0  0  0  0  0  0  0  0  0
   24.4803   17.0605    6.2030 C   0  0  1  0  0  0  0  0  0  0  0  0
   25.6982   16.1811    6.4138 O   0  0  0  0  0  0  0  0  0  0  0  0
   23.3909   16.7988    7.3335 C   0  0  0  0  0  0  0  0  0  0  0  0
   27.8376   18.1507    6.5192 N   0  0  0  0  0  0  0  0  0  0  0  0
   24.4803   19.7163   10.2142 O   0  0  0  0  0  0  0  0  0  0  0  0
   26.9703    7.5693   10.6078 C   0  0  0  0  0  0  0  0  0  0  0  0
   25.3013   18.7402    7.1937 O   0  0  0  0  0  0  0  0  0  0  0  0
   25.4868   18.3619    4.0738 O   0  0  0  0  0  0  0  0  0  0  0  0
   25.5273    9.2365   11.4673 C   0  0  0  0  0  0  0  0  0  0  0  0
   27.6820    7.0184   11.6499 C   0  0  0  0  0  0  0  0  0  0  0  0
   25.7028    7.7004   10.9972 C   0  0  1  0  0  0  0  0  0  0  0  0
   25.8658   19.0297   12.3844 F   0  0  0  0  0  0  0  0  0  0  0  0
  1  2  1  6  0  0  0
  1 10  1  0  0  0  0
  1  3  1  0  0  0  0
  3  4  1  6  0  0  0
  3  6  1  0  0  0  0
  5 46  2  0  0  0  0
  6 42  1  1  0  0  0
  6  8  1  0  0  0  0
  7 47  1  0  0  0  0
  8  9  1  0  0  0  0
  8 49  1  1  0  0  0
  9 10  1  0  0  0  0
  9 11  1  1  0  0  0
 11 12  1  0  0  0  0
 13 14  1  6  0  0  0
 13 15  1  0  0  0  0
 13 21  1  0  0  0  0
 14 46  1  0  0  0  0
 15 16  1  0  0  0  0
 16 17  1  6  0  0  0
 16 18  1  0  0  0  0
 18  2  1  1  0  0  0
 18 19  1  0  0  0  0
 19 20  1  6  0  0  0
 19 21  1  0  0  0  0
 21 22  1  1  0  0  0
 23 20  1  1  0  0  0
 23 24  1  0  0  0  0
 23 28  1  0  0  0  0
 24 25  1  6  0  0  0
 24 26  1  0  0  0  0
 26 27  1  0  0  0  0
 26 32  1  6  0  0  0
 27 28  1  0  0  0  0
 27 29  1  1  0  0  0
 29 30  1  0  0  0  0
 31 32  1  1  0  0  0
 31 33  1  0  0  0  0
 31 39  1  0  0  0  0
 33 36  1  0  0  0  0
 33 41  1  1  0  0  0
 34 40  1  0  0  0  0
 35 48  1  0  0  0  0
 36 37  1  0  0  0  0
 36 45  1  6  0  0  0
 37 38  1  0  0  0  0
 37 44  1  1  0  0  0
 38 39  1  0  0  0  0
 38 40  1  1  0  0  0
 43 47  1  0  0  0  0
 46 48  1  0  0  0  0
 48 43  1  6  0  0  0
M  END
>  <CHROM.1>
176.11505712,61.71352789,-137.92670611,-125.41021318,-55.00606177,-101.77050658
-105.90770025,-178.92865321,151.83524424,171.23060572,-44.77419693,-142.45513107
144.20607898,25.68001218,14.59938735,9.06188613,1.80099554,1.30866916,-0.58247690

>  <Name>
ligand

>  <RI>
0

>  <Rbt.Current_Directory>
/home/itssahil/PROJECTS/Mol_Feturizer/New_Systems/rnas/4PDQ

>  <Rbt.Executable>
rbdock ($Id: //depot/dev/client3/rdock/2013.1/src/exe/rbdock.cxx#4 $)

>  <Rbt.Library>
libRbt.so (2013.1, Build901 2013/11/27)

>  <Rbt.Parameter_File>
/export/apps/rDock/src/rDock_2013.1_src/data/scripts/dock_solv.prm

>  <Rbt.Receptor>
prm/blind_docking_100.prm

>  <SCORE>
30.135

>  <SCORE.INTER>
4.25029

>  <SCORE.INTER.CONST>
1

>  <SCORE.INTER.POLAR>
0

>  <SCORE.INTER.ROT>
13

>  <SCORE.INTER.SOLV>
34.8706

>  <SCORE.INTER.VDW>
-21.0567

>  <SCORE.INTER.norm>
0.0867407

>  <SCORE.INTRA>
24.3335

>  <SCORE.INTRA.DIHEDRAL>
-7.65493

>  <SCORE.INTRA.DIHEDRAL.0>
34.5115

>  <SCORE.INTRA.POLAR>
0

>  <SCORE.INTRA.POLAR.0>
0

>  <SCORE.INTRA.REPUL>
0.13964

>  <SCORE.INTRA.REPUL.0>
0

>  <SCORE.INTRA.SOLV>
13.3957

>  <SCORE.INTRA.SOLV.lig_0>
-122.812

>  <SCORE.INTRA.VDW>
20.765

>  <SCORE.INTRA.VDW.0>
-7.46208

>  <SCORE.INTRA.norm>
0.496603

>  <SCORE.RESTR>
1.55119

>  <SCORE.RESTR.CAVITY>
1.55119

>  <SCORE.RESTR.norm>
0.031657

>  <SCORE.SYSTEM>
0

>  <SCORE.SYSTEM.CONST>
0

>  <SCORE.SYSTEM.DIHEDRAL>
0

>  <SCORE.SYSTEM.SOLV>
0

>  <SCORE.SYSTEM.norm>
0

>  <SCORE.heavy>
49

>  <SCORE.norm>
0.615001

>  <RMSD>
11.176

$$$$
ligand
 OpenBabel11021811513D
libRbt.so/2013.1/901 2013/11/27
 49 52  0  0  0  0  0  0  0  0999 V2000
   27.4078   13.7219   12.3555 C   0  0  2  0  0  0  0  0  0  0  0  0
   26.1631   13.0961   12.2502 O   0  0  0  0  0  0  0  0  0  0  0  0
   27.3090   14.9360   13.3521 C   0  0  2  0  0  0  0  0  0  0  0  0
   26.8539   14.4292   14.7117 N   0  0  0  0  0  0  0  0  0  0  0  0
   28.6619    7.1398   11.3955 O   0  0  0  0  0  0  0  0  0  0  0  0
   26.3440   16.0103   12.7984 C   0  0  2  0  0  0  0  0  0  0  0  0
   24.2173    5.2281   11.4646 N   0  0  0  0  0  0  0  0  0  0  0  0
   26.8133   16.4920   11.4166 C   0  0  2  0  0  0  0  0  0  0  0  0
   26.9270   15.2927   10.3830 C   0  0  2  0  0  0  0  0  0  0  0  0
   27.8461   14.2340   10.9952 O   0  0  0  0  0  0  0  0  0  0  0  0
   27.4558   15.7793    9.0027 C   0  0  0  0  0  0  0  0  0  0  0  0
   28.6580   15.1459    8.5935 N   0  0  0  0  0  0  0  0  0  0  0  0
   26.4700    8.9888   10.8943 C   0  0  2  0  0  0  0  0  0  0  0  0
   26.3081    7.5054   10.8820 N   0  0  0  0  0  0  0  0  0  0  0  0
   26.9470    9.3967   12.3716 C   0  0  0  0  0  0  0  0  0  0  0  0
   27.1671   10.9526   12.4672 C   0  0  2  0  0  0  0  0  0  0  0  0
   27.5851   11.3414   13.8222 N   0  0  0  0  0  0  0  0  0  0  0  0
   25.8599   11.6983   12.1325 C   0  0  2  0  0  0  0  0  0  0  0  0
   25.3592   11.3146   10.6816 C   0  0  2  0  0  0  0  0  0  0  0  0
   24.1172   12.0803   10.4564 O   0  0  0  0  0  0  0  0  0  0  0  0
   25.0788    9.7271   10.6297 C   0  0  1  0  0  0  0  0  0  0  0  0
   24.6321    9.4112    9.3490 O   0  0  0  0  0  0  0  0  0  0  0  0
   23.9444   13.0531    9.6279 C   0  0  1  0  0  0  0  0  0  0  0  0
   22.4665   13.4797    9.3860 C   0  0  2  0  0  0  0  0  0  0  0  0
   21.9769   12.7506    8.3050 O   0  0  0  0  0  0  0  0  0  0  0  0
   22.7008   14.8890    9.0295 C   0  0  1  0  0  0  0  0  0  0  0  0
   23.8353   15.4403    9.9472 C   0  0  2  0  0  0  0  0  0  0  0  0
   24.6457   14.2910    9.9765 O   0  0  0  0  0  0  0  0  0  0  0  0
   23.4421   16.0671   11.2857 C   0  0  0  0  0  0  0  0  0  0  0  0
   22.5498   17.1227   10.9819 O   0  0  0  0  0  0  0  0  0  0  0  0
   24.2395   14.2993    7.2107 C   0  0  2  0  0  0  0  0  0  0  0  0
   23.0713   14.9028    7.5773 O   0  0  0  0  0  0  0  0  0  0  0  0
   25.2185   15.2739    6.6251 C   0  0  1  0  0  0  0  0  0  0  0  0
   26.1266   10.2669    4.4960 N   0  0  0  0  0  0  0  0  0  0  0  0
   28.3995    4.3557   10.9716 O   0  0  0  0  0  0  0  0  0  0  0  0
   26.5206   14.5028    6.1781 C   0  0  2  0  0  0  0  0  0  0  0  0
   26.2471   13.3448    5.1568 C   0  0  1  0  0  0  0  0  0  0  0  0
   25.3112   12.4160    5.7460 C   0  0  1  0  0  0  0  0  0  0  0  0
   24.0489   13.1335    6.1852 O   0  0  0  0  0  0  0  0  0  0  0  0
   24.9698   11.2440    4.7247 C   0  0  0  0  0  0  0  0  0  0  0  0
   24.6630   15.8905    5.4860 N   0  0  0  0  0  0  0  0  0  0  0  0
   26.3209   16.8975   13.5186 O   0  0  0  0  0  0  0  0  0  0  0  0
   26.6012    4.8237   12.2781 C   0  0  0  0  0  0  0  0  0  0  0  0
   25.7764   13.7986    4.2134 O   0  0  0  0  0  0  0  0  0  0  0  0
   26.9878   14.0181    7.1108 O   0  0  0  0  0  0  0  0  0  0  0  0
   27.5341    6.6861   11.1547 C   0  0  0  0  0  0  0  0  0  0  0  0
   25.3622    5.4245   12.2791 C   0  0  0  0  0  0  0  0  0  0  0  0
   27.1961    5.1062   11.1198 C   0  0  1  0  0  0  0  0  0  0  0  0
   28.0774   17.0984   11.5247 F   0  0  0  0  0  0  0  0  0  0  0  0
  1  2  1  6  0  0  0
  1 10  1  0  0  0  0
  1  3  1  0  0  0  0
  3  4  1  1  0  0  0
  3  6  1  0  0  0  0
  5 46  2  0  0  0  0
  6 42  1  1  0  0  0
  6  8  1  0  0  0  0
  7 47  1  0  0  0  0
  8  9  1  0  0  0  0
  8 49  1  1  0  0  0
  9 10  1  0  0  0  0
  9 11  1  6  0  0  0
 11 12  1  0  0  0  0
 13 14  1  1  0  0  0
 13 15  1  0  0  0  0
 13 21  1  0  0  0  0
 14 46  1  0  0  0  0
 15 16  1  0  0  0  0
 16 17  1  1  0  0  0
 16 18  1  0  0  0  0
 18  2  1  6  0  0  0
 18 19  1  0  0  0  0
 19 20  1  1  0  0  0
 19 21  1  0  0  0  0
 21 22  1  6  0  0  0
 23 20  1  1  0  0  0
 23 24  1  0  0  0  0
 23 28  1  0  0  0  0
 24 25  1  6  0  0  0
 24 26  1  0  0  0  0
 26 27  1  0  0  0  0
 26 32  1  6  0  0  0
 27 28  1  0  0  0  0
 27 29  1  1  0  0  0
 29 30  1  0  0  0  0
 31 32  1  6  0  0  0
 31 33  1  0  0  0  0
 31 39  1  0  0  0  0
 33 36  1  0  0  0  0
 33 41  1  6  0  0  0
 34 40  1  0  0  0  0
 35 48  1  0  0  0  0
 36 37  1  0  0  0  0
 36 45  1  1  0  0  0
 37 38  1  0  0  0  0
 37 44  1  6  0  0  0
 38 39  1  0  0  0  0
 38 40  1  6  0  0  0
 43 47  1  0  0  0  0
 46 48  1  0  0  0  0
 48 43  1  1  0  0  0
M  END
>  <CHROM.1>
-142.20534512,12.72288205,120.95284597,-61.71733478,111.41888626,167.77437919
-65.30689753,-57.57553846,-116.82700162,70.80312536,63.60231389,-171.49677076
-18.53553678,25.76342810,12.37940867,9.88213438,-2.15346342,1.28343777,-2.85757998

>  <Name>
ligand

>  <RI>
0

>  <Rbt.Current_Directory>
/home/itssahil/PROJECTS/Mol_Feturizer/New_Systems/rnas/4PDQ

>  <Rbt.Executable>
rbdock ($Id: //depot/dev/client3/rdock/2013.1/src/exe/rbdock.cxx#4 $)

>  <Rbt.Library>
libRbt.so (2013.1, Build901 2013/11/27)

>  <Rbt.Parameter_File>
/export/apps/rDock/src/rDock_2013.1_src/data/scripts/dock_solv.prm

>  <Rbt.Receptor>
prm/blind_docking_100.prm

>  <SCORE>
64.9523

>  <SCORE.INTER>
43.5294

>  <SCORE.INTER.CONST>
1

>  <SCORE.INTER.POLAR>
0

>  <SCORE.INTER.ROT>
13

>  <SCORE.INTER.SOLV>
29.8728

>  <SCORE.INTER.VDW>
6.79535

>  <SCORE.INTER.norm>
0.888356

>  <SCORE.INTRA>
11.8977

>  <SCORE.INTRA.DIHEDRAL>
-1.04406

>  <SCORE.INTRA.DIHEDRAL.0>
34.5115

>  <SCORE.INTRA.POLAR>
0

>  <SCORE.INTRA.POLAR.0>
0

>  <SCORE.INTRA.REPUL>
0.117899

>  <SCORE.INTRA.REPUL.0>
0

>  <SCORE.INTRA.SOLV>
5.5076

>  <SCORE.INTRA.SOLV.lig_0>
-122.812

>  <SCORE.INTRA.VDW>
9.07646

>  <SCORE.INTRA.VDW.0>
-7.46208

>  <SCORE.INTRA.norm>
0.242811

>  <SCORE.RESTR>
9.52513

>  <SCORE.RESTR.CAVITY>
9.52513

>  <SCORE.RESTR.norm>
0.19439

>  <SCORE.SYSTEM>
0

>  <SCORE.SYSTEM.CONST>
0

>  <SCORE.SYSTEM.DIHEDRAL>
0

>  <SCORE.SYSTEM.SOLV>
0

>  <SCORE.SYSTEM.norm>
0

>  <SCORE.heavy>
49

>  <SCORE.norm>
1.32556

>  <RMSD>
11.190

$$$$
ligand
 OpenBabel11021811513D
libRbt.so/2013.1/901 2013/11/27
 49 52  0  0  0  0  0  0  0  0999 V2000
   23.3569   17.6044   10.8587 C   0  0  2  0  0  0  0  0  0  0  0  0
   23.5557   16.6582    9.8501 O   0  0  0  0  0  0  0  0  0  0  0  0
   23.5227   19.0535   10.2674 C   0  0  2  0  0  0  0  0  0  0  0  0
   22.5140   19.2532    9.1471 N   0  0  0  0  0  0  0  0  0  0  0  0
   27.1217   12.3841   13.9202 O   0  0  0  0  0  0  0  0  0  0  0  0
   24.9705   19.2691    9.7681 C   0  0  2  0  0  0  0  0  0  0  0  0
   25.4314    7.4123   11.4833 N   0  0  0  0  0  0  0  0  0  0  0  0
   25.9717   19.0426   10.9118 C   0  0  2  0  0  0  0  0  0  0  0  0
   25.8330   17.5897   11.5357 C   0  0  2  0  0  0  0  0  0  0  0  0
   24.3766   17.4029   11.9652 O   0  0  0  0  0  0  0  0  0  0  0  0
   26.8111   17.3869   12.7289 C   0  0  0  0  0  0  0  0  0  0  0  0
   28.1106   17.9096   12.5003 N   0  0  0  0  0  0  0  0  0  0  0  0
   25.6545   13.2755   11.5691 C   0  0  2  0  0  0  0  0  0  0  0  0
   26.1323   11.8737   11.7526 N   0  0  0  0  0  0  0  0  0  0  0  0
   24.0743   13.2012   11.2976 C   0  0  0  0  0  0  0  0  0  0  0  0
   23.4801   14.6476   11.1159 C   0  0  2  0  0  0  0  0  0  0  0  0
   22.0358   14.5918   10.8463 N   0  0  0  0  0  0  0  0  0  0  0  0
   24.1648   15.3613    9.9331 C   0  0  2  0  0  0  0  0  0  0  0  0
   25.7270   15.4478   10.1675 C   0  0  2  0  0  0  0  0  0  0  0  0
   26.2836   16.1485    8.9933 O   0  0  0  0  0  0  0  0  0  0  0  0
   26.3200   13.9525   10.2848 C   0  0  1  0  0  0  0  0  0  0  0  0
   27.6952   14.0498   10.4826 O   0  0  0  0  0  0  0  0  0  0  0  0
   26.1444   15.8186    7.7545 C   0  0  1  0  0  0  0  0  0  0  0  0
   24.8769   16.3791    7.0447 C   0  0  2  0  0  0  0  0  0  0  0  0
   23.8520   15.4470    7.1893 O   0  0  0  0  0  0  0  0  0  0  0  0
   25.3931   16.4096    5.6661 C   0  0  1  0  0  0  0  0  0  0  0  0
   26.8824   16.8714    5.7149 C   0  0  2  0  0  0  0  0  0  0  0  0
   27.2637   16.1946    6.8875 O   0  0  0  0  0  0  0  0  0  0  0  0
   27.1778   18.3696    5.6309 C   0  0  0  0  0  0  0  0  0  0  0  0
   26.1983   18.9189    4.7698 O   0  0  0  0  0  0  0  0  0  0  0  0
   25.6703   13.9815    5.8916 C   0  0  2  0  0  0  0  0  0  0  0  0
   25.2338   15.0218    5.1231 O   0  0  0  0  0  0  0  0  0  0  0  0
   26.4956   13.0062    5.1049 C   0  0  1  0  0  0  0  0  0  0  0  0
   24.0082   10.4383    9.3254 N   0  0  0  0  0  0  0  0  0  0  0  0
   28.0169    9.7537   14.2888 O   0  0  0  0  0  0  0  0  0  0  0  0
   26.9218   11.8082    6.0394 C   0  0  2  0  0  0  0  0  0  0  0  0
   25.7106   11.0661    6.7035 C   0  0  1  0  0  0  0  0  0  0  0  0
   24.9381   12.0220    7.4618 C   0  0  1  0  0  0  0  0  0  0  0  0
   24.5157   13.1856    6.5851 O   0  0  0  0  0  0  0  0  0  0  0  0
   23.6704   11.3194    8.1193 C   0  0  0  0  0  0  0  0  0  0  0  0
   25.7370   12.4810    4.0396 N   0  0  0  0  0  0  0  0  0  0  0  0
   25.0762   20.3396    9.3818 O   0  0  0  0  0  0  0  0  0  0  0  0
   26.1903    9.3062   13.0148 C   0  0  0  0  0  0  0  0  0  0  0  0
   25.0511   10.6329    5.8698 O   0  0  0  0  0  0  0  0  0  0  0  0
   27.5605   12.2326    6.8969 O   0  0  0  0  0  0  0  0  0  0  0  0
   26.8784   11.5706   13.0176 C   0  0  0  0  0  0  0  0  0  0  0  0
   26.3441    8.3436   12.0424 C   0  0  0  0  0  0  0  0  0  0  0  0
   27.3163   10.0161   13.0749 C   0  0  1  0  0  0  0  0  0  0  0  0
   25.7507   19.9816   11.9349 F   0  0  0  0  0  0  0  0  0  0  0  0
  1  2  1  6  0  0  0
  1 10  1  0  0  0  0
  1  3  1  0  0  0  0
  3  4  1  6  0  0  0
  3  6  1  0  0  0  0
  5 46  2  0  0  0  0
  6 42  1  1  0  0  0
  6  8  1  0  0  0  0
  7 47  1  0  0  0  0
  8  9  1  0  0  0  0
  8 49  1  1  0  0  0
  9 10  1  0  0  0  0
  9 11  1  1  0  0  0
 11 12  1  0  0  0  0
 13 14  1  6  0  0  0
 13 15  1  0  0  0  0
 13 21  1  0  0  0  0
 14 46  1  0  0  0  0
 15 16  1  0  0  0  0
 16 17  1  6  0  0  0
 16 18  1  0  0  0  0
 18  2  1  1  0  0  0
 18 19  1  0  0  0  0
 19 20  1  6  0  0  0
 19 21  1  0  0  0  0
 21 22  1  1  0  0  0
 23 20  1  1  0  0  0
 23 24  1  0  0  0  0
 23 28  1  0  0  0  0
 24 25  1  6  0  0  0
 24 26  1  0  0  0  0
 26 27  1  0  0  0  0
 26 32  1  1  0  0  0
 27 28  1  0  0  0  0
 27 29  1  1  0  0  0
 29 30  1  0  0  0  0
 31 32  1  6  0  0  0
 31 33  1  0  0  0  0
 31 39  1  0  0  0  0
 33 36  1  0  0  0  0
 33 41  1  6  0  0  0
 34 40  1  0  0  0  0
 35 48  1  0  0  0  0
 36 37  1  0  0  0  0
 36 45  1  1  0  0  0
 37 38  1  0  0  0  0
 37 44  1  6  0  0  0
 38 39  1  0  0  0  0
 38 40  1  6  0  0  0
 43 47  1  0  0  0  0
 46 48  1  0  0  0  0
 48 43  1  1  0  0  0
M  END
>  <CHROM.1>
144.69761931,50.33685532,-42.44546635,-125.14024462,-55.72740142,87.24418244
-48.38604718,-34.49311148,-132.89923549,74.64231510,-173.28724198,-110.24803580
-0.61671243,25.56307522,14.62375479,9.30358834,-3.05825017,1.46720854,-1.94631067

>  <Name>
ligand

>  <RI>
0

>  <Rbt.Current_Directory>
/home/itssahil/PROJECTS/Mol_Feturizer/New_Systems/rnas/4PDQ

>  <Rbt.Executable>
rbdock ($Id: //depot/dev/client3/rdock/2013.1/src/exe/rbdock.cxx#4 $)

>  <Rbt.Library>
libRbt.so (2013.1, Build901 2013/11/27)

>  <Rbt.Parameter_File>
/export/apps/rDock/src/rDock_2013.1_src/data/scripts/dock_solv.prm

>  <Rbt.Receptor>
prm/blind_docking_60.prm

>  <SCORE>
12.2802

>  <SCORE.INTER>
2.07454

>  <SCORE.INTER.CONST>
1

>  <SCORE.INTER.POLAR>
0

>  <SCORE.INTER.ROT>
13

>  <SCORE.INTER.SOLV>
30.7823

>  <SCORE.INTER.VDW>
-21.1444

>  <SCORE.INTER.norm>
0.0423376

>  <SCORE.INTRA>
6.28381

>  <SCORE.INTRA.DIHEDRAL>
-8.51015

>  <SCORE.INTRA.DIHEDRAL.0>
34.5115

>  <SCORE.INTRA.POLAR>
0

>  <SCORE.INTRA.POLAR.0>
0

>  <SCORE.INTRA.REPUL>
0

>  <SCORE.INTRA.REPUL.0>
0

>  <SCORE.INTRA.SOLV>
2.50558

>  <SCORE.INTRA.SOLV.lig_0>
-122.812

>  <SCORE.INTRA.VDW>
9.2861

>  <SCORE.INTRA.VDW.0>
-7.46208

>  <SCORE.INTRA.norm>
0.128241

>  <SCORE.RESTR>
3.92184

>  <SCORE.RESTR.CAVITY>
3.92184

>  <SCORE.RESTR.norm>
0.0800375

>  <SCORE.SYSTEM>
0

>  <SCORE.SYSTEM.CONST>
0

>  <SCORE.SYSTEM.DIHEDRAL>
0

>  <SCORE.SYSTEM.SOLV>
0

>  <SCORE.SYSTEM.norm>
0

>  <SCORE.heavy>
49

>  <SCORE.norm>
0.250616

>  <RMSD>
11.205

$$$$
ligand
 OpenBabel11021811513D
libRbt.so/2013.1/901 2013/11/27
 49 52  0  0  0  0  0  0  0  0999 V2000
   25.5575   17.4601   10.0242 C   0  0  2  0  0  0  0  0  0  0  0  0
   24.6084   16.4401   10.1276 O   0  0  0  0  0  0  0  0  0  0  0  0
   24.9925   18.7787   10.6717 C   0  0  2  0  0  0  0  0  0  0  0  0
   24.6568   18.5132   12.1309 N   0  0  0  0  0  0  0  0  0  0  0  0
   27.0500   12.1709   14.7529 O   0  0  0  0  0  0  0  0  0  0  0  0
   23.7545   19.2755    9.8892 C   0  0  2  0  0  0  0  0  0  0  0  0
   28.4244    9.3665   14.0503 N   0  0  0  0  0  0  0  0  0  0  0  0
   24.1134   19.5175    8.4147 C   0  0  2  0  0  0  0  0  0  0  0  0
   24.6895   18.2080    7.7270 C   0  0  2  0  0  0  0  0  0  0  0  0
   25.8756   17.7245    8.5635 O   0  0  0  0  0  0  0  0  0  0  0  0
   25.1025   18.4751    6.2506 C   0  0  0  0  0  0  0  0  0  0  0  0
   26.4455   18.1221    5.9580 N   0  0  0  0  0  0  0  0  0  0  0  0
   24.9662   13.2242   13.0143 C   0  0  2  0  0  0  0  0  0  0  0  0
   24.9410   11.8424   13.5774 N   0  0  0  0  0  0  0  0  0  0  0  0
   23.6173   13.4095   12.1644 C   0  0  0  0  0  0  0  0  0  0  0  0
   23.5498   14.8578   11.5509 C   0  0  2  0  0  0  0  0  0  0  0  0
   22.3275   15.0334   10.7528 N   0  0  0  0  0  0  0  0  0  0  0  0
   24.7645   15.1066   10.6347 C   0  0  2  0  0  0  0  0  0  0  0  0
   26.1133   14.9274   11.4420 C   0  0  2  0  0  0  0  0  0  0  0  0
   27.2064   15.1921   10.4857 O   0  0  0  0  0  0  0  0  0  0  0  0
   26.1878   13.4174   12.0038 C   0  0  1  0  0  0  0  0  0  0  0  0
   27.3838   13.2777   12.7036 O   0  0  0  0  0  0  0  0  0  0  0  0
   27.4660   14.5405    9.4037 C   0  0  1  0  0  0  0  0  0  0  0  0
   28.9700   14.2298    9.1469 C   0  0  2  0  0  0  0  0  0  0  0  0
   29.5057   15.2737    8.3964 O   0  0  0  0  0  0  0  0  0  0  0  0
   28.8069   13.0087    8.3405 C   0  0  1  0  0  0  0  0  0  0  0  0
   27.6330   12.1792    8.9465 C   0  0  2  0  0  0  0  0  0  0  0  0
   26.7847   13.2493    9.2837 O   0  0  0  0  0  0  0  0  0  0  0  0
   27.9573   11.1580   10.0379 C   0  0  0  0  0  0  0  0  0  0  0  0
   26.8279   10.3110   10.1362 O   0  0  0  0  0  0  0  0  0  0  0  0
   27.2693   13.3002    6.4499 C   0  0  2  0  0  0  0  0  0  0  0  0
   28.5342   13.4605    6.9377 O   0  0  0  0  0  0  0  0  0  0  0  0
   27.1810   13.6347    4.9900 C   0  0  1  0  0  0  0  0  0  0  0  0
   22.2948   14.6245    7.3163 N   0  0  0  0  0  0  0  0  0  0  0  0
   24.6990    9.8207   15.7335 O   0  0  0  0  0  0  0  0  0  0  0  0
   25.6872   13.4775    4.5066 C   0  0  2  0  0  0  0  0  0  0  0  0
   24.6684   14.3530    5.3156 C   0  0  1  0  0  0  0  0  0  0  0  0
   24.7649   14.0065    6.7143 C   0  0  1  0  0  0  0  0  0  0  0  0
   26.1934   14.1492    7.2042 O   0  0  0  0  0  0  0  0  0  0  0  0
   23.7770   14.9039    7.5813 C   0  0  0  0  0  0  0  0  0  0  0  0
   27.5709   14.9722    4.7768 N   0  0  0  0  0  0  0  0  0  0  0  0
   23.3882   20.2538   10.3529 O   0  0  0  0  0  0  0  0  0  0  0  0
   25.8860    9.1498   13.9167 C   0  0  0  0  0  0  0  0  0  0  0  0
   24.9567   15.4563    5.1853 O   0  0  0  0  0  0  0  0  0  0  0  0
   25.3751   12.3809    4.6587 O   0  0  0  0  0  0  0  0  0  0  0  0
   26.0908   11.4454   14.4543 C   0  0  0  0  0  0  0  0  0  0  0  0
   27.1856    8.9143   13.5272 C   0  0  0  0  0  0  0  0  0  0  0  0
   25.9133    9.9327   14.9945 C   0  0  1  0  0  0  0  0  0  0  0  0
   25.0871   20.5275    8.3182 F   0  0  0  0  0  0  0  0  0  0  0  0
  1  2  1  6  0  0  0
  1 10  1  0  0  0  0
  1  3  1  0  0  0  0
  3  4  1  1  0  0  0
  3  6  1  0  0  0  0
  5 46  2  0  0  0  0
  6 42  1  1  0  0  0
  6  8  1  0  0  0  0
  7 47  1  0  0  0  0
  8  9  1  0  0  0  0
  8 49  1  1  0  0  0
  9 10  1  0  0  0  0
  9 11  1  6  0  0  0
 11 12  1  0  0  0  0
 13 14  1  6  0  0  0
 13 15  1  0  0  0  0
 13 21  1  0  0  0  0
 14 46  1  0  0  0  0
 15 16  1  0  0  0  0
 16 17  1  6  0  0  0
 16 18  1  0  0  0  0
 18  2  1  1  0  0  0
 18 19  1  0  0  0  0
 19 20  1  6  0  0  0
 19 21  1  0  0  0  0
 21 22  1  1  0  0  0
 23 20  1  1  0  0  0
 23 24  1  0  0  0  0
 23 28  1  0  0  0  0
 24 25  1  6  0  0  0
 24 26  1  0  0  0  0
 26 27  1  0  0  0  0
 26 32  1  6  0  0  0
 27 28  1  0  0  0  0
 27 29  1  1  0  0  0
 29 30  1  0  0  0  0
 31 32  1  1  0  0  0
 31 33  1  0  0  0  0
 31 39  1  0  0  0  0
 33 36  1  0  0  0  0
 33 41  1  1  0  0  0
 34 40  1  0  0  0  0
 35 48  1  0  0  0  0
 36 37  1  0  0  0  0
 36 45  1  1  0  0  0
 37 38  1  0  0  0  0
 37 44  1  1  0  0  0
 38 39  1  0  0  0  0
 38 40  1  1  0  0  0
 43 47  1  0  0  0  0
 46 48  1  0  0  0  0
 48 43  1  6  0  0  0
M  END
>  <CHROM.1>
-128.96387798,134.61450499,125.15855654,-178.16234341,-61.29676530,-136.88053704
-108.10372677,-164.07379024,-172.92451559,67.33764056,-1.22095071,-158.48380679
120.03758409,25.86534118,14.46087342,9.65109721,1.88130126,1.13433963,-1.05974293

>  <Name>
ligand

>  <RI>
0

>  <Rbt.Current_Directory>
/home/itssahil/PROJECTS/Mol_Feturizer/New_Systems/rnas/4PDQ

>  <Rbt.Executable>
rbdock ($Id: //depot/dev/client3/rdock/2013.1/src/exe/rbdock.cxx#4 $)

>  <Rbt.Library>
libRbt.so (2013.1, Build901 2013/11/27)

>  <Rbt.Parameter_File>
/export/apps/rDock/src/rDock_2013.1_src/data/scripts/dock_solv.prm

>  <Rbt.Receptor>
prm/blind_docking_80.prm

>  <SCORE>
25.7537

>  <SCORE.INTER>
9.52141

>  <SCORE.INTER.CONST>
1

>  <SCORE.INTER.POLAR>
0

>  <SCORE.INTER.ROT>
13

>  <SCORE.INTER.SOLV>
37.9641

>  <SCORE.INTER.VDW>
-18.5737

>  <SCORE.INTER.norm>
0.194314

>  <SCORE.INTRA>
11.8203

>  <SCORE.INTRA.DIHEDRAL>
5.18786

>  <SCORE.INTRA.DIHEDRAL.0>
34.5115

>  <SCORE.INTRA.POLAR>
0

>  <SCORE.INTRA.POLAR.0>
0

>  <SCORE.INTRA.REPUL>
0.100928

>  <SCORE.INTRA.REPUL.0>
0

>  <SCORE.INTRA.SOLV>
7.84716

>  <SCORE.INTRA.SOLV.lig_0>
-122.812

>  <SCORE.INTRA.VDW>
4.7981

>  <SCORE.INTRA.VDW.0>
-7.46208

>  <SCORE.INTRA.norm>
0.24123

>  <SCORE.RESTR>
4.412

>  <SCORE.RESTR.CAVITY>
4.412

>  <SCORE.RESTR.norm>
0.0900409

>  <SCORE.SYSTEM>
0

>  <SCORE.SYSTEM.CONST>
0

>  <SCORE.SYSTEM.DIHEDRAL>
0

>  <SCORE.SYSTEM.SOLV>
0

>  <SCORE.SYSTEM.norm>
0

>  <SCORE.heavy>
49

>  <SCORE.norm>
0.525585

>  <RMSD>
11.229

$$$$
ligand
 OpenBabel11021811513D
libRbt.so/2013.1/901 2013/11/27
 49 52  0  0  0  0  0  0  0  0999 V2000
   25.0976   16.7932   10.6182 C   0  0  2  0  0  0  0  0  0  0  0  0
   25.1896   15.7903   11.5865 O   0  0  0  0  0  0  0  0  0  0  0  0
   24.4843   18.0940   11.2577 C   0  0  2  0  0  0  0  0  0  0  0  0
   25.3684   18.5480   12.4087 N   0  0  0  0  0  0  0  0  0  0  0  0
   27.7059    9.8124   13.5596 O   0  0  0  0  0  0  0  0  0  0  0  0
   23.0351   17.8307   11.7291 C   0  0  2  0  0  0  0  0  0  0  0  0
   28.4469    8.8977   11.0113 N   0  0  0  0  0  0  0  0  0  0  0  0
   22.1668   17.3545   10.5540 C   0  0  2  0  0  0  0  0  0  0  0  0
   22.7559   16.0431    9.8811 C   0  0  2  0  0  0  0  0  0  0  0  0
   24.2035   16.3335    9.4806 O   0  0  0  0  0  0  0  0  0  0  0  0
   21.9027   15.5987    8.6579 C   0  0  0  0  0  0  0  0  0  0  0  0
   22.1761   14.2775    8.2178 N   0  0  0  0  0  0  0  0  0  0  0  0
   25.6059   11.6028   12.6327 C   0  0  2  0  0  0  0  0  0  0  0  0
   25.5273   10.1175   12.5114 N   0  0  0  0  0  0  0  0  0  0  0  0
   24.1869   12.1879   12.1630 C   0  0  0  0  0  0  0  0  0  0  0  0
   24.1735   13.7575   12.2832 C   0  0  2  0  0  0  0  0  0  0  0  0
   22.8851   14.3073   11.8365 N   0  0  0  0  0  0  0  0  0  0  0  0
   25.2880   14.3693   11.4111 C   0  0  2  0  0  0  0  0  0  0  0  0
   26.7022   13.8091   11.8460 C   0  0  2  0  0  0  0  0  0  0  0  0
   27.6930   14.4562   10.9634 O   0  0  0  0  0  0  0  0  0  0  0  0
   26.7110   12.2080   11.6515 C   0  0  1  0  0  0  0  0  0  0  0  0
   27.9649   11.7358   12.0316 O   0  0  0  0  0  0  0  0  0  0  0  0
   27.7232   14.4232    9.6747 C   0  0  1  0  0  0  0  0  0  0  0  0
   29.1093   14.1074    9.0395 C   0  0  2  0  0  0  0  0  0  0  0  0
   29.7671   15.3141    8.8138 O   0  0  0  0  0  0  0  0  0  0  0  0
   28.6410   13.5003    7.7824 C   0  0  1  0  0  0  0  0  0  0  0  0
   27.3882   12.6274    8.1013 C   0  0  2  0  0  0  0  0  0  0  0  0
   26.7969   13.4686    9.0611 O   0  0  0  0  0  0  0  0  0  0  0  0
   27.6055   11.1613    8.4785 C   0  0  0  0  0  0  0  0  0  0  0  0
   28.4716   11.1643    9.5977 O   0  0  0  0  0  0  0  0  0  0  0  0
   27.0460   15.0770    6.7858 C   0  0  2  0  0  0  0  0  0  0  0  0
   28.3358   14.6348    6.8518 O   0  0  0  0  0  0  0  0  0  0  0  0
   26.4034   14.7481    5.4704 C   0  0  1  0  0  0  0  0  0  0  0  0
   26.8724   19.3290    7.4684 N   0  0  0  0  0  0  0  0  0  0  0  0
   25.2576    7.3500   13.5112 O   0  0  0  0  0  0  0  0  0  0  0  0
   24.9373   15.3311    5.4440 C   0  0  2  0  0  0  0  0  0  0  0  0
   24.8700   16.8771    5.6973 C   0  0  1  0  0  0  0  0  0  0  0  0
   25.4848   17.1673    6.9714 C   0  0  1  0  0  0  0  0  0  0  0  0
   26.8971   16.6162    7.0227 O   0  0  0  0  0  0  0  0  0  0  0  0
   25.4782   18.7341    7.2506 C   0  0  0  0  0  0  0  0  0  0  0  0
   27.1285   15.3410    4.4173 N   0  0  0  0  0  0  0  0  0  0  0  0
   22.5987   18.7990   12.1515 O   0  0  0  0  0  0  0  0  0  0  0  0
   26.3543    7.5340   11.5304 C   0  0  0  0  0  0  0  0  0  0  0  0
   25.4640   17.4052    4.8691 O   0  0  0  0  0  0  0  0  0  0  0  0
   24.3378   14.8309    6.2888 O   0  0  0  0  0  0  0  0  0  0  0  0
   26.6928    9.3310   13.0327 C   0  0  0  0  0  0  0  0  0  0  0  0
   27.5879    7.7695   10.9658 C   0  0  0  0  0  0  0  0  0  0  0  0
   26.4538    7.7441   12.8424 C   0  0  1  0  0  0  0  0  0  0  0  0
   22.0984   18.3581    9.5715 F   0  0  0  0  0  0  0  0  0  0  0  0
  1  2  1  1  0  0  0
  1 10  1  0  0  0  0
  1  3  1  0  0  0  0
  3  4  1  1  0  0  0
  3  6  1  0  0  0  0
  5 46  2  0  0  0  0
  6 42  1  6  0  0  0
  6  8  1  0  0  0  0
  7 47  1  0  0  0  0
  8  9  1  0  0  0  0
  8 49  1  6  0  0  0
  9 10  1  0  0  0  0
  9 11  1  6  0  0  0
 11 12  1  0  0  0  0
 13 14  1  6  0  0  0
 13 15  1  0  0  0  0
 13 21  1  0  0  0  0
 14 46  1  0  0  0  0
 15 16  1  0  0  0  0
 16 17  1  6  0  0  0
 16 18  1  0  0  0  0
 18  2  1  1  0  0  0
 18 19  1  0  0  0  0
 19 20  1  6  0  0  0
 19 21  1  0  0  0  0
 21 22  1  1  0  0  0
 23 20  1  1  0  0  0
 23 24  1  0  0  0  0
 23 28  1  0  0  0  0
 24 25  1  6  0  0  0
 24 26  1  0  0  0  0
 26 27  1  0  0  0  0
 26 32  1  6  0  0  0
 27 28  1  0  0  0  0
 27 29  1  1  0  0  0
 29 30  1  0  0  0  0
 31 32  1  6  0  0  0
 31 33  1  0  0  0  0
 31 39  1  0  0  0  0
 33 36  1  0  0  0  0
 33 41  1  6  0  0  0
 34 40  1  0  0  0  0
 35 48  1  0  0  0  0
 36 37  1  0  0  0  0
 36 45  1  1  0  0  0
 37 38  1  0  0  0  0
 37 44  1  6  0  0  0
 38 39  1  0  0  0  0
 38 40  1  6  0  0  0
 43 47  1  0  0  0  0
 46 48  1  0  0  0  0
 48 43  1  6  0  0  0
M  END
>  <CHROM.1>
158.97690950,-127.70284986,-165.52279836,-173.75422706,-57.34203452,-133.07207640
-95.14368013,56.78815577,-110.71808544,-121.64384991,-54.87582463,-172.43407984
121.17449819,25.81824623,14.16394796,9.72667038,1.93892966,0.83459843,-0.74672450

>  <Name>
ligand

>  <RI>
0

>  <Rbt.Current_Directory>
/home/itssahil/PROJECTS/Mol_Feturizer/New_Systems/rnas/4PDQ

>  <Rbt.Executable>
rbdock ($Id: //depot/dev/client3/rdock/2013.1/src/exe/rbdock.cxx#4 $)

>  <Rbt.Library>
libRbt.so (2013.1, Build901 2013/11/27)

>  <Rbt.Parameter_File>
/export/apps/rDock/src/rDock_2013.1_src/data/scripts/dock_solv.prm

>  <Rbt.Receptor>
prm/blind_docking_100.prm

>  <SCORE>
39.563

>  <SCORE.INTER>
28.2401

>  <SCORE.INTER.CONST>
1

>  <SCORE.INTER.POLAR>
0

>  <SCORE.INTER.ROT>
13

>  <SCORE.INTER.SOLV>
45.8473

>  <SCORE.INTER.VDW>
-8.72235

>  <SCORE.INTER.norm>
0.576329

>  <SCORE.INTRA>
8.37276

>  <SCORE.INTRA.DIHEDRAL>
-0.751904

>  <SCORE.INTRA.DIHEDRAL.0>
34.5115

>  <SCORE.INTRA.POLAR>
0

>  <SCORE.INTRA.POLAR.0>
0

>  <SCORE.INTRA.REPUL>
0

>  <SCORE.INTRA.REPUL.0>
0

>  <SCORE.INTRA.SOLV>
12.086

>  <SCORE.INTRA.SOLV.lig_0>
-122.812

>  <SCORE.INTRA.VDW>
2.70569

>  <SCORE.INTRA.VDW.0>
-7.46208

>  <SCORE.INTRA.norm>
0.170873

>  <SCORE.RESTR>
2.95013

>  <SCORE.RESTR.CAVITY>
2.95013

>  <SCORE.RESTR.norm>
0.0602067

>  <SCORE.SYSTEM>
0

>  <SCORE.SYSTEM.CONST>
0

>  <SCORE.SYSTEM.DIHEDRAL>
0

>  <SCORE.SYSTEM.SOLV>
0

>  <SCORE.SYSTEM.norm>
0

>  <SCORE.heavy>
49

>  <SCORE.norm>
0.807409

>  <RMSD>
11.235

$$$$
ligand
 OpenBabel11021811513D
libRbt.so/2013.1/901 2013/11/27
 49 52  0  0  0  0  0  0  0  0999 V2000
   23.1242   17.5257   10.6886 C   0  0  2  0  0  0  0  0  0  0  0  0
   23.3958   16.3624    9.9641 O   0  0  0  0  0  0  0  0  0  0  0  0
   23.0011   18.7476    9.7042 C   0  0  2  0  0  0  0  0  0  0  0  0
   21.8876   18.4730    8.7056 N   0  0  0  0  0  0  0  0  0  0  0  0
   27.5651   13.4077   14.5545 O   0  0  0  0  0  0  0  0  0  0  0  0
   24.3493   19.0021    8.9903 C   0  0  2  0  0  0  0  0  0  0  0  0
   30.4938    9.5779   16.0988 N   0  0  0  0  0  0  0  0  0  0  0  0
   25.4616   19.2571   10.0195 C   0  0  2  0  0  0  0  0  0  0  0  0
   25.6145   18.0448   11.0327 C   0  0  2  0  0  0  0  0  0  0  0  0
   24.2477   17.7961   11.6732 O   0  0  0  0  0  0  0  0  0  0  0  0
   26.7042   18.3336   12.1054 C   0  0  0  0  0  0  0  0  0  0  0  0
   26.6860   19.6646   12.5974 N   0  0  0  0  0  0  0  0  0  0  0  0
   25.4104   13.5741   12.6041 C   0  0  2  0  0  0  0  0  0  0  0  0
   25.9381   12.2819   13.1321 N   0  0  0  0  0  0  0  0  0  0  0  0
   23.8965   13.3088   12.1413 C   0  0  0  0  0  0  0  0  0  0  0  0
   23.2509   14.6346   11.5901 C   0  0  2  0  0  0  0  0  0  0  0  0
   21.8697   14.3999   11.1438 N   0  0  0  0  0  0  0  0  0  0  0  0
   24.0621   15.1651   10.3911 C   0  0  2  0  0  0  0  0  0  0  0  0
   25.5631   15.4335   10.8130 C   0  0  2  0  0  0  0  0  0  0  0  0
   26.2474   15.9416    9.6076 O   0  0  0  0  0  0  0  0  0  0  0  0
   26.2202   14.0474   11.3116 C   0  0  1  0  0  0  0  0  0  0  0  0
   27.5414   14.3028   11.6704 O   0  0  0  0  0  0  0  0  0  0  0  0
   26.5563   15.2717    8.5499 C   0  0  1  0  0  0  0  0  0  0  0  0
   26.7524   16.1104    7.2528 C   0  0  2  0  0  0  0  0  0  0  0  0
   25.5274   16.1814    6.5939 O   0  0  0  0  0  0  0  0  0  0  0  0
   27.6937   15.2185    6.5553 C   0  0  1  0  0  0  0  0  0  0  0  0
   28.6838   14.6358    7.6106 C   0  0  2  0  0  0  0  0  0  0  0  0
   27.7712   14.4618    8.6668 O   0  0  0  0  0  0  0  0  0  0  0  0
   29.9689   15.4120    7.9022 C   0  0  0  0  0  0  0  0  0  0  0  0
   30.6424   14.6954    8.9198 O   0  0  0  0  0  0  0  0  0  0  0  0
   26.4864   13.0834    6.6413 C   0  0  2  0  0  0  0  0  0  0  0  0
   26.8637   14.1609    5.8928 O   0  0  0  0  0  0  0  0  0  0  0  0
   26.3926   11.8311    5.8202 C   0  0  1  0  0  0  0  0  0  0  0  0
   22.5018   13.6091    8.2794 N   0  0  0  0  0  0  0  0  0  0  0  0
   27.0619    9.9106   13.6753 O   0  0  0  0  0  0  0  0  0  0  0  0
   25.9041   10.6414    6.7345 C   0  0  2  0  0  0  0  0  0  0  0  0
   24.5335   10.9155    7.4452 C   0  0  1  0  0  0  0  0  0  0  0  0
   24.6514   12.1183    8.2358 C   0  0  1  0  0  0  0  0  0  0  0  0
   25.1207   13.2787    7.3789 O   0  0  0  0  0  0  0  0  0  0  0  0
   23.2668   12.4601    8.9423 C   0  0  0  0  0  0  0  0  0  0  0  0
   25.4514   12.0018    4.7852 N   0  0  0  0  0  0  0  0  0  0  0  0
   24.2458   19.9172    8.3134 O   0  0  0  0  0  0  0  0  0  0  0  0
   28.8361   10.9062   14.6859 C   0  0  0  0  0  0  0  0  0  0  0  0
   23.7340   11.0783    6.6379 O   0  0  0  0  0  0  0  0  0  0  0  0
   26.6831   10.4859    7.5665 O   0  0  0  0  0  0  0  0  0  0  0  0
   27.0544   12.3614   14.1302 C   0  0  0  0  0  0  0  0  0  0  0  0
   29.2327    9.8936   15.5305 C   0  0  0  0  0  0  0  0  0  0  0  0
   27.5057   10.8873   14.6148 C   0  0  1  0  0  0  0  0  0  0  0  0
   25.1705   20.4149   10.7625 F   0  0  0  0  0  0  0  0  0  0  0  0
  1  2  1  6  0  0  0
  1 10  1  0  0  0  0
  1  3  1  0  0  0  0
  3  4  1  6  0  0  0
  3  6  1  0  0  0  0
  5 46  2  0  0  0  0
  6 42  1  6  0  0  0
  6  8  1  0  0  0  0
  7 47  1  0  0  0  0
  8  9  1  0  0  0  0
  8 49  1  1  0  0  0
  9 10  1  0  0  0  0
  9 11  1  1  0  0  0
 11 12  1  0  0  0  0
 13 14  1  6  0  0  0
 13 15  1  0  0  0  0
 13 21  1  0  0  0  0
 14 46  1  0  0  0  0
 15 16  1  0  0  0  0
 16 17  1  6  0  0  0
 16 18  1  0  0  0  0
 18  2  1  1  0  0  0
 18 19  1  0  0  0  0
 19 20  1  6  0  0  0
 19 21  1  0  0  0  0
 21 22  1  1  0  0  0
 23 20  1  1  0  0  0
 23 24  1  0  0  0  0
 23 28  1  0  0  0  0
 24 25  1  6  0  0  0
 24 26  1  0  0  0  0
 26 27  1  0  0  0  0
 26 32  1  1  0  0  0
 27 28  1  0  0  0  0
 27 29  1  1  0  0  0
 29 30  1  0  0  0  0
 31 32  1  6  0  0  0
 31 33  1  0  0  0  0
 31 39  1  0  0  0  0
 33 36  1  0  0  0  0
 33 41  1  6  0  0  0
 34 40  1  0  0  0  0
 35 48  1  0  0  0  0
 36 37  1  0  0  0  0
 36 45  1  1  0  0  0
 37 38  1  0  0  0  0
 37 44  1  6  0  0  0
 38 39  1  0  0  0  0
 38 40  1  6  0  0  0
 43 47  1  0  0  0  0
 46 48  1  0  0  0  0
 48 43  1  6  0  0  0
M  END
>  <CHROM.1>
154.11817399,58.32294634,40.84767981,-154.62701505,-71.09457606,157.11974483
-83.87364558,177.73605021,-147.34548545,-103.88337989,-170.23907163,-82.23373918
-161.69387919,25.86712253,14.55118635,9.96071436,-3.08452591,1.17817124,-2.19143174

>  <Name>
ligand

>  <RI>
0

>  <Rbt.Current_Directory>
/home/itssahil/PROJECTS/Mol_Feturizer/New_Systems/rnas/4PDQ

>  <Rbt.Executable>
rbdock ($Id: //depot/dev/client3/rdock/2013.1/src/exe/rbdock.cxx#4 $)

>  <Rbt.Library>
libRbt.so (2013.1, Build901 2013/11/27)

>  <Rbt.Parameter_File>
/export/apps/rDock/src/rDock_2013.1_src/data/scripts/dock_solv.prm

>  <Rbt.Receptor>
prm/blind_docking_80.prm

>  <SCORE>
17.9874

>  <SCORE.INTER>
6.97462

>  <SCORE.INTER.CONST>
1

>  <SCORE.INTER.POLAR>
0

>  <SCORE.INTER.ROT>
13

>  <SCORE.INTER.SOLV>
32.0798

>  <SCORE.INTER.VDW>
-18.3102

>  <SCORE.INTER.norm>
0.142339

>  <SCORE.INTRA>
2.30844

>  <SCORE.INTRA.DIHEDRAL>
-12.1186

>  <SCORE.INTRA.DIHEDRAL.0>
34.5115

>  <SCORE.INTRA.POLAR>
0

>  <SCORE.INTRA.POLAR.0>
0

>  <SCORE.INTRA.REPUL>
0

>  <SCORE.INTRA.REPUL.0>
0

>  <SCORE.INTRA.SOLV>
5.28463

>  <SCORE.INTRA.SOLV.lig_0>
-122.812

>  <SCORE.INTRA.VDW>
5.72545

>  <SCORE.INTRA.VDW.0>
-7.46208

>  <SCORE.INTRA.norm>
0.0471109

>  <SCORE.RESTR>
8.70434

>  <SCORE.RESTR.CAVITY>
8.70434

>  <SCORE.RESTR.norm>
0.17764

>  <SCORE.SYSTEM>
0

>  <SCORE.SYSTEM.CONST>
0

>  <SCORE.SYSTEM.DIHEDRAL>
0

>  <SCORE.SYSTEM.SOLV>
0

>  <SCORE.SYSTEM.norm>
0

>  <SCORE.heavy>
49

>  <SCORE.norm>
0.36709

>  <RMSD>
11.250

$$$$
ligand
 OpenBabel11021811513D
libRbt.so/2013.1/901 2013/11/27
 49 52  0  0  0  0  0  0  0  0999 V2000
   23.3585   17.6483   11.0294 C   0  0  2  0  0  0  0  0  0  0  0  0
   23.5081   16.5773   10.1448 O   0  0  0  0  0  0  0  0  0  0  0  0
   23.1831   18.9860   10.2187 C   0  0  2  0  0  0  0  0  0  0  0  0
   21.9629   18.8672    9.3190 N   0  0  0  0  0  0  0  0  0  0  0  0
   25.7176   11.2707   10.3021 O   0  0  0  0  0  0  0  0  0  0  0  0
   24.4596   19.2915    9.4008 C   0  0  2  0  0  0  0  0  0  0  0  0
   28.0915    7.8534   13.9812 N   0  0  0  0  0  0  0  0  0  0  0  0
   25.6811   19.3870   10.3284 C   0  0  2  0  0  0  0  0  0  0  0  0
   25.8895   18.0545   11.1655 C   0  0  2  0  0  0  0  0  0  0  0  0
   24.5870   17.7644   11.9136 O   0  0  0  0  0  0  0  0  0  0  0  0
   27.0943   18.1788   12.1426 C   0  0  0  0  0  0  0  0  0  0  0  0
   27.3664   16.9919   12.8713 N   0  0  0  0  0  0  0  0  0  0  0  0
   25.9387   13.5582   12.0890 C   0  0  2  0  0  0  0  0  0  0  0  0
   26.5253   12.2207   12.3957 N   0  0  0  0  0  0  0  0  0  0  0  0
   24.3549   13.3510   11.9305 C   0  0  0  0  0  0  0  0  0  0  0  0
   23.6493   14.7254   11.6282 C   0  0  2  0  0  0  0  0  0  0  0  0
   22.1996   14.5455   11.4607 N   0  0  0  0  0  0  0  0  0  0  0  0
   24.2123   15.3408   10.3316 C   0  0  2  0  0  0  0  0  0  0  0  0
   25.7752   15.5546   10.4530 C   0  0  2  0  0  0  0  0  0  0  0  0
   26.2121   16.1498    9.1747 O   0  0  0  0  0  0  0  0  0  0  0  0
   26.4795   14.1243   10.6970 C   0  0  1  0  0  0  0  0  0  0  0  0
   27.8532   14.3325   10.7932 O   0  0  0  0  0  0  0  0  0  0  0  0
   25.8989   15.7555    7.9876 C   0  0  1  0  0  0  0  0  0  0  0  0
   24.4339   16.0427    7.5452 C   0  0  2  0  0  0  0  0  0  0  0  0
   23.6541   14.9410    7.8886 O   0  0  0  0  0  0  0  0  0  0  0  0
   24.6551   16.1200    6.0915 C   0  0  1  0  0  0  0  0  0  0  0  0
   26.0091   16.8541    5.8443 C   0  0  2  0  0  0  0  0  0  0  0  0
   26.7343   16.3032    6.9162 O   0  0  0  0  0  0  0  0  0  0  0  0
   25.9911   18.3771    5.7064 C   0  0  0  0  0  0  0  0  0  0  0  0
   25.3296   18.6568    4.4870 O   0  0  0  0  0  0  0  0  0  0  0  0
   25.8445   14.1924    5.1465 C   0  0  2  0  0  0  0  0  0  0  0  0
   24.6603   14.7083    5.5880 O   0  0  0  0  0  0  0  0  0  0  0  0
   25.6828   12.8119    4.5815 C   0  0  1  0  0  0  0  0  0  0  0  0
   28.8311   12.8843    8.2811 N   0  0  0  0  0  0  0  0  0  0  0  0
   28.3742   10.0101   12.2284 O   0  0  0  0  0  0  0  0  0  0  0  0
   27.0931   12.2590    4.1395 C   0  0  2  0  0  0  0  0  0  0  0  0
   28.1523   12.2400    5.2955 C   0  0  1  0  0  0  0  0  0  0  0  0
   28.2975   13.5793    5.8158 C   0  0  1  0  0  0  0  0  0  0  0  0
   26.9538   14.1347    6.2481 O   0  0  0  0  0  0  0  0  0  0  0  0
   29.3335   13.5998    7.0239 C   0  0  0  0  0  0  0  0  0  0  0  0
   25.1623   11.9460    5.5642 N   0  0  0  0  0  0  0  0  0  0  0  0
   24.3232   20.2860    8.8544 O   0  0  0  0  0  0  0  0  0  0  0  0
   26.3125    9.3100   12.8758 C   0  0  0  0  0  0  0  0  0  0  0  0
   27.7627   11.5567    6.1315 O   0  0  0  0  0  0  0  0  0  0  0  0
   27.5089   12.9519    3.3209 O   0  0  0  0  0  0  0  0  0  0  0  0
   26.3227   11.1403   11.3757 C   0  0  0  0  0  0  0  0  0  0  0  0
   26.8781    8.1281   13.2993 C   0  0  0  0  0  0  0  0  0  0  0  0
   27.0238    9.7615   11.8436 C   0  0  1  0  0  0  0  0  0  0  0  0
   25.5138   20.4507   11.2327 F   0  0  0  0  0  0  0  0  0  0  0  0
  1  2  1  6  0  0  0
  1 10  1  0  0  0  0
  1  3  1  0  0  0  0
  3  4  1  6  0  0  0
  3  6  1  0  0  0  0
  5 46  2  0  0  0  0
  6 42  1  1  0  0  0
  6  8  1  0  0  0  0
  7 47  1  0  0  0  0
  8  9  1  0  0  0  0
  8 49  1  1  0  0  0
  9 10  1  0  0  0  0
  9 11  1  1  0  0  0
 11 12  1  0  0  0  0
 13 14  1  6  0  0  0
 13 15  1  0  0  0  0
 13 21  1  0  0  0  0
 14 46  1  0  0  0  0
 15 16  1  0  0  0  0
 16 17  1  6  0  0  0
 16 18  1  0  0  0  0
 18  2  1  1  0  0  0
 18 19  1  0  0  0  0
 19 20  1  6  0  0  0
 19 21  1  0  0  0  0
 21 22  1  1  0  0  0
 23 20  1  1  0  0  0
 23 24  1  0  0  0  0
 23 28  1  0  0  0  0
 24 25  1  6  0  0  0
 24 26  1  0  0  0  0
 26 27  1  0  0  0  0
 26 32  1  1  0  0  0
 27 28  1  0  0  0  0
 27 29  1  1  0  0  0
 29 30  1  0  0  0  0
 31 32  1  1  0  0  0
 31 33  1  0  0  0  0
 31 39  1  0  0  0  0
 33 36  1  0  0  0  0
 33 41  1  1  0  0  0
 34 40  1  0  0  0  0
 35 48  1  0  0  0  0
 36 37  1  0  0  0  0
 36 45  1  6  0  0  0
 37 38  1  0  0  0  0
 37 44  1  1  0  0  0
 38 39  1  0  0  0  0
 38 40  1  1  0  0  0
 43 47  1  0  0  0  0
 46 48  1  0  0  0  0
 48 43  1  1  0  0  0
M  END
>  <CHROM.1>
151.36100855,54.01930744,-177.13403816,60.03154915,-47.20544583,72.26459675
-110.54780276,-68.61275103,-175.85254413,-68.63425683,71.53491691,-60.87004930
128.67905864,25.86127684,14.81447761,9.06898295,2.52451973,1.21902745,-1.20420738

>  <Name>
ligand

>  <RI>
0

>  <Rbt.Current_Directory>
/home/itssahil/PROJECTS/Mol_Feturizer/New_Systems/rnas/4PDQ

>  <Rbt.Executable>
rbdock ($Id: //depot/dev/client3/rdock/2013.1/src/exe/rbdock.cxx#4 $)

>  <Rbt.Library>
libRbt.so (2013.1, Build901 2013/11/27)

>  <Rbt.Parameter_File>
/export/apps/rDock/src/rDock_2013.1_src/data/scripts/dock_solv.prm

>  <Rbt.Receptor>
prm/blind_docking_60.prm

>  <SCORE>
6.88143

>  <SCORE.INTER>
-1.0724

>  <SCORE.INTER.CONST>
1

>  <SCORE.INTER.POLAR>
0

>  <SCORE.INTER.ROT>
13

>  <SCORE.INTER.SOLV>
28.965

>  <SCORE.INTER.VDW>
-22.6366

>  <SCORE.INTER.norm>
-0.0218858

>  <SCORE.INTRA>
5.02451

>  <SCORE.INTRA.DIHEDRAL>
-20.6148

>  <SCORE.INTRA.DIHEDRAL.0>
34.5115

>  <SCORE.INTRA.POLAR>
0

>  <SCORE.INTRA.POLAR.0>
0

>  <SCORE.INTRA.REPUL>
0

>  <SCORE.INTRA.REPUL.0>
0

>  <SCORE.INTRA.SOLV>
6.94748

>  <SCORE.INTRA.SOLV.lig_0>
-122.812

>  <SCORE.INTRA.VDW>
11.8582

>  <SCORE.INTRA.VDW.0>
-7.46208

>  <SCORE.INTRA.norm>
0.102541

>  <SCORE.RESTR>
2.92932

>  <SCORE.RESTR.CAVITY>
2.92932

>  <SCORE.RESTR.norm>
0.0597821

>  <SCORE.SYSTEM>
0

>  <SCORE.SYSTEM.CONST>
0

>  <SCORE.SYSTEM.DIHEDRAL>
0

>  <SCORE.SYSTEM.SOLV>
0

>  <SCORE.SYSTEM.norm>
0

>  <SCORE.heavy>
49

>  <SCORE.norm>
0.140437

>  <RMSD>
11.260

$$$$
ligand
 OpenBabel11021811513D
libRbt.so/2013.1/901 2013/11/27
 49 52  0  0  0  0  0  0  0  0999 V2000
   25.3608   15.2937    6.2792 C   0  0  2  0  0  0  0  0  0  0  0  0
   26.1655   15.5033    7.4020 O   0  0  0  0  0  0  0  0  0  0  0  0
   25.7875   16.2795    5.1288 C   0  0  2  0  0  0  0  0  0  0  0  0
   27.2494   16.0413    4.7849 N   0  0  0  0  0  0  0  0  0  0  0  0
   26.3376   13.4390   12.8240 O   0  0  0  0  0  0  0  0  0  0  0  0
   25.5398   17.7451    5.5559 C   0  0  2  0  0  0  0  0  0  0  0  0
   28.0135    9.3196   12.6484 N   0  0  0  0  0  0  0  0  0  0  0  0
   24.0611   17.9561    5.9172 C   0  0  2  0  0  0  0  0  0  0  0  0
   23.5929   16.9763    7.0749 C   0  0  2  0  0  0  0  0  0  0  0  0
   23.9058   15.5460    6.6313 O   0  0  0  0  0  0  0  0  0  0  0  0
   22.0812   17.1570    7.3968 C   0  0  0  0  0  0  0  0  0  0  0  0
   21.2166   16.5512    6.4485 N   0  0  0  0  0  0  0  0  0  0  0  0
   25.5024   12.3192   10.2699 C   0  0  2  0  0  0  0  0  0  0  0  0
   25.6461   11.5052   11.5124 N   0  0  0  0  0  0  0  0  0  0  0  0
   26.9851   12.6568    9.7558 C   0  0  0  0  0  0  0  0  0  0  0  0
   26.9267   13.4980    8.4265 C   0  0  2  0  0  0  0  0  0  0  0  0
   28.2794   13.8310    7.9561 N   0  0  0  0  0  0  0  0  0  0  0  0
   26.1595   14.8146    8.6611 C   0  0  2  0  0  0  0  0  0  0  0  0
   24.6925   14.5171    9.1735 C   0  0  2  0  0  0  0  0  0  0  0  0
   24.0445   15.8306    9.3589 O   0  0  0  0  0  0  0  0  0  0  0  0
   24.7808   13.7123   10.5684 C   0  0  1  0  0  0  0  0  0  0  0  0
   23.4816   13.4673   11.0062 O   0  0  0  0  0  0  0  0  0  0  0  0
   24.5155   16.8447   10.0012 C   0  0  1  0  0  0  0  0  0  0  0  0
   24.0907   16.9544   11.4952 C   0  0  2  0  0  0  0  0  0  0  0  0
   22.9290   17.7200   11.5599 O   0  0  0  0  0  0  0  0  0  0  0  0
   25.2584   17.6950   12.0012 C   0  0  1  0  0  0  0  0  0  0  0  0
   26.5312   17.1399   11.2904 C   0  0  2  0  0  0  0  0  0  0  0  0
   25.9770   16.9418   10.0129 O   0  0  0  0  0  0  0  0  0  0  0  0
   27.2656   15.9644   11.9368 C   0  0  0  0  0  0  0  0  0  0  0  0
   27.5473   16.3563   13.2671 O   0  0  0  0  0  0  0  0  0  0  0  0
   25.1469   19.5540   10.4028 C   0  0  2  0  0  0  0  0  0  0  0  0
   25.0079   19.1409   11.6964 O   0  0  0  0  0  0  0  0  0  0  0  0
   25.9561   20.8129   10.2964 C   0  0  1  0  0  0  0  0  0  0  0  0
   22.4151   20.5322    6.0720 N   0  0  0  0  0  0  0  0  0  0  0  0
   25.6908    9.9323   13.6373 O   0  0  0  0  0  0  0  0  0  0  0  0
   26.0328   21.2594    8.7849 C   0  0  2  0  0  0  0  0  0  0  0  0
   24.6290   21.4715    8.1192 C   0  0  1  0  0  0  0  0  0  0  0  0
   23.8735   20.2453    8.2252 C   0  0  1  0  0  0  0  0  0  0  0  0
   23.7853   19.7937    9.6707 O   0  0  0  0  0  0  0  0  0  0  0  0
   22.4215   20.4282    7.5998 C   0  0  0  0  0  0  0  0  0  0  0  0
   25.3378   21.8475   11.0269 N   0  0  0  0  0  0  0  0  0  0  0  0
   25.8184   18.4378    4.6905 O   0  0  0  0  0  0  0  0  0  0  0  0
   27.4739   11.1517   14.3398 C   0  0  0  0  0  0  0  0  0  0  0  0
   24.0779   22.2985    8.6935 O   0  0  0  0  0  0  0  0  0  0  0  0
   26.5580   20.4257    8.1914 O   0  0  0  0  0  0  0  0  0  0  0  0
   26.0897   12.2270   12.7497 C   0  0  0  0  0  0  0  0  0  0  0  0
   28.1558   10.5765   13.2909 C   0  0  0  0  0  0  0  0  0  0  0  0
   26.1851   11.2174   14.0079 C   0  0  1  0  0  0  0  0  0  0  0  0
   23.2542   17.7195    4.7901 F   0  0  0  0  0  0  0  0  0  0  0  0
  1  2  1  1  0  0  0
  1 10  1  0  0  0  0
  1  3  1  0  0  0  0
  3  4  1  1  0  0  0
  3  6  1  0  0  0  0
  5 46  2  0  0  0  0
  6 42  1  6  0  0  0
  6  8  1  0  0  0  0
  7 47  1  0  0  0  0
  8  9  1  0  0  0  0
  8 49  1  6  0  0  0
  9 10  1  0  0  0  0
  9 11  1  6  0  0  0
 11 12  1  0  0  0  0
 13 14  1  1  0  0  0
 13 15  1  0  0  0  0
 13 21  1  0  0  0  0
 14 46  1  0  0  0  0
 15 16  1  0  0  0  0
 16 17  1  1  0  0  0
 16 18  1  0  0  0  0
 18  2  1  6  0  0  0
 18 19  1  0  0  0  0
 19 20  1  1  0  0  0
 19 21  1  0  0  0  0
 21 22  1  6  0  0  0
 23 20  1  1  0  0  0
 23 24  1  0  0  0  0
 23 28  1  0  0  0  0
 24 25  1  6  0  0  0
 24 26  1  0  0  0  0
 26 27  1  0  0  0  0
 26 32  1  6  0  0  0
 27 28  1  0  0  0  0
 27 29  1  1  0  0  0
 29 30  1  0  0  0  0
 31 32  1  1  0  0  0
 31 33  1  0  0  0  0
 31 39  1  0  0  0  0
 33 36  1  0  0  0  0
 33 41  1  1  0  0  0
 34 40  1  0  0  0  0
 35 48  1  0  0  0  0
 36 37  1  0  0  0  0
 36 45  1  6  0  0  0
 37 38  1  0  0  0  0
 37 44  1  1  0  0  0
 38 39  1  0  0  0  0
 38 40  1  1  0  0  0
 43 47  1  0  0  0  0
 46 48  1  0  0  0  0
 48 43  1  6  0  0  0
M  END
>  <CHROM.1>
-178.18491444,79.45137102,76.96629425,73.46303814,-49.87271741,-93.33678143
-74.61317096,-54.03905966,-132.93400828,71.60172948,-58.36299066,54.74479210
173.23660349,25.23946758,16.32485325,9.42751185,2.94706894,-1.31485402,0.80566720

>  <Name>
ligand

>  <RI>
0

>  <Rbt.Current_Directory>
/home/itssahil/PROJECTS/Mol_Feturizer/New_Systems/rnas/4PDQ

>  <Rbt.Executable>
rbdock ($Id: //depot/dev/client3/rdock/2013.1/src/exe/rbdock.cxx#4 $)

>  <Rbt.Library>
libRbt.so (2013.1, Build901 2013/11/27)

>  <Rbt.Parameter_File>
/export/apps/rDock/src/rDock_2013.1_src/data/scripts/dock_solv.prm

>  <Rbt.Receptor>
prm/blind_docking_40.prm

>  <SCORE>
9.91103

>  <SCORE.INTER>
5.71913

>  <SCORE.INTER.CONST>
1

>  <SCORE.INTER.POLAR>
0

>  <SCORE.INTER.ROT>
13

>  <SCORE.INTER.SOLV>
31.9628

>  <SCORE.INTER.VDW>
-19.1082

>  <SCORE.INTER.norm>
0.116717

>  <SCORE.INTRA>
3.36425

>  <SCORE.INTRA.DIHEDRAL>
-16.4181

>  <SCORE.INTRA.DIHEDRAL.0>
34.5115

>  <SCORE.INTRA.POLAR>
0

>  <SCORE.INTRA.POLAR.0>
0

>  <SCORE.INTRA.REPUL>
0

>  <SCORE.INTRA.REPUL.0>
0

>  <SCORE.INTRA.SOLV>
7.94556

>  <SCORE.INTRA.SOLV.lig_0>
-122.812

>  <SCORE.INTRA.VDW>
7.60051

>  <SCORE.INTRA.VDW.0>
-7.46208

>  <SCORE.INTRA.norm>
0.0686582

>  <SCORE.RESTR>
0.827646

>  <SCORE.RESTR.CAVITY>
0.827646

>  <SCORE.RESTR.norm>
0.0168907

>  <SCORE.SYSTEM>
0

>  <SCORE.SYSTEM.CONST>
0

>  <SCORE.SYSTEM.DIHEDRAL>
0

>  <SCORE.SYSTEM.SOLV>
0

>  <SCORE.SYSTEM.norm>
0

>  <SCORE.heavy>
49

>  <SCORE.norm>
0.202266

>  <RMSD>
11.278

$$$$
ligand
 OpenBabel11021811513D
libRbt.so/2013.1/901 2013/11/27
 49 52  0  0  0  0  0  0  0  0999 V2000
   26.0214    8.3127   11.2250 C   0  0  2  0  0  0  0  0  0  0  0  0
   26.8967    9.3379   10.8581 O   0  0  0  0  0  0  0  0  0  0  0  0
   26.3524    7.8293   12.6858 C   0  0  2  0  0  0  0  0  0  0  0  0
   26.2217    9.0049   13.6414 N   0  0  0  0  0  0  0  0  0  0  0  0
   27.3660   15.0238   11.6510 O   0  0  0  0  0  0  0  0  0  0  0  0
   27.7694    7.2121   12.7409 C   0  0  2  0  0  0  0  0  0  0  0  0
   24.3889   17.2922   11.6915 N   0  0  0  0  0  0  0  0  0  0  0  0
   27.8829    6.0401   11.7534 C   0  0  2  0  0  0  0  0  0  0  0  0
   27.5536    6.4895   10.2670 C   0  0  2  0  0  0  0  0  0  0  0  0
   26.1693    7.1405   10.2716 O   0  0  0  0  0  0  0  0  0  0  0  0
   27.6162    5.2866    9.2817 C   0  0  0  0  0  0  0  0  0  0  0  0
   28.8798    4.6417    9.2435 N   0  0  0  0  0  0  0  0  0  0  0  0
   26.0667   12.9095   13.1729 C   0  0  2  0  0  0  0  0  0  0  0  0
   26.1684   14.3189   13.6527 N   0  0  0  0  0  0  0  0  0  0  0  0
   27.5644   12.3441   13.0564 C   0  0  0  0  0  0  0  0  0  0  0  0
   27.5492   10.8447   12.5769 C   0  0  2  0  0  0  0  0  0  0  0  0
   28.9170   10.3212   12.4468 N   0  0  0  0  0  0  0  0  0  0  0  0
   26.8558   10.7301   11.2046 C   0  0  2  0  0  0  0  0  0  0  0  0
   25.3760   11.2839   11.2837 C   0  0  2  0  0  0  0  0  0  0  0  0
   24.8014   11.1239    9.9332 O   0  0  0  0  0  0  0  0  0  0  0  0
   25.4232   12.8379   11.7130 C   0  0  1  0  0  0  0  0  0  0  0  0
   24.1135   13.3083   11.7692 O   0  0  0  0  0  0  0  0  0  0  0  0
   24.6790   12.0348    9.0288 C   0  0  1  0  0  0  0  0  0  0  0  0
   23.4453   11.8923    8.0895 C   0  0  2  0  0  0  0  0  0  0  0  0
   23.8295   11.1411    6.9813 O   0  0  0  0  0  0  0  0  0  0  0  0
   23.2654   13.3130    7.7470 C   0  0  1  0  0  0  0  0  0  0  0  0
   23.5409   14.1603    9.0274 C   0  0  2  0  0  0  0  0  0  0  0  0
   24.6114   13.4057    9.5404 O   0  0  0  0  0  0  0  0  0  0  0  0
   22.3686   14.4584    9.9632 C   0  0  0  0  0  0  0  0  0  0  0  0
   21.8963   13.2045   10.4186 O   0  0  0  0  0  0  0  0  0  0  0  0
   25.3769   14.2780    6.9510 C   0  0  2  0  0  0  0  0  0  0  0  0
   24.2299   13.6071    6.6382 O   0  0  0  0  0  0  0  0  0  0  0  0
   25.9899   14.9375    5.7508 C   0  0  1  0  0  0  0  0  0  0  0  0
   30.1587   13.0116    8.0281 N   0  0  0  0  0  0  0  0  0  0  0  0
   28.0910   16.9628   14.1474 O   0  0  0  0  0  0  0  0  0  0  0  0
   27.3338   15.6484    6.1738 C   0  0  2  0  0  0  0  0  0  0  0  0
   28.3742   14.6825    6.8397 C   0  0  1  0  0  0  0  0  0  0  0  0
   27.7654   14.0682    7.9961 C   0  0  1  0  0  0  0  0  0  0  0  0
   26.4696   13.3773    7.6159 O   0  0  0  0  0  0  0  0  0  0  0  0
   28.7734   13.0439    8.6800 C   0  0  0  0  0  0  0  0  0  0  0  0
   26.2962   13.9705    4.7724 N   0  0  0  0  0  0  0  0  0  0  0  0
   27.9699    6.8325   13.8001 O   0  0  0  0  0  0  0  0  0  0  0  0
   26.8202   17.6298   12.3867 C   0  0  0  0  0  0  0  0  0  0  0  0
   28.6433   13.8633    6.0820 O   0  0  0  0  0  0  0  0  0  0  0  0
   27.0822   16.4538    6.9557 O   0  0  0  0  0  0  0  0  0  0  0  0
   26.8721   15.2927   12.7553 C   0  0  0  0  0  0  0  0  0  0  0  0
   25.5021   17.9930   12.2230 C   0  0  0  0  0  0  0  0  0  0  0  0
   26.8889   16.7725   13.4043 C   0  0  1  0  0  0  0  0  0  0  0  0
   26.9820    5.0219   12.1128 F   0  0  0  0  0  0  0  0  0  0  0  0
  1  2  1  6  0  0  0
  1 10  1  0  0  0  0
  1  3  1  0  0  0  0
  3  4  1  1  0  0  0
  3  6  1  0  0  0  0
  5 46  2  0  0  0  0
  6 42  1  1  0  0  0
  6  8  1  0  0  0  0
  7 47  1  0  0  0  0
  8  9  1  0  0  0  0
  8 49  1  1  0  0  0
  9 10  1  0  0  0  0
  9 11  1  6  0  0  0
 11 12  1  0  0  0  0
 13 14  1  6  0  0  0
 13 15  1  0  0  0  0
 13 21  1  0  0  0  0
 14 46  1  0  0  0  0
 15 16  1  0  0  0  0
 16 17  1  6  0  0  0
 16 18  1  0  0  0  0
 18  2  1  1  0  0  0
 18 19  1  0  0  0  0
 19 20  1  6  0  0  0
 19 21  1  0  0  0  0
 21 22  1  1  0  0  0
 23 20  1  1  0  0  0
 23 24  1  0  0  0  0
 23 28  1  0  0  0  0
 24 25  1  6  0  0  0
 24 26  1  0  0  0  0
 26 27  1  0  0  0  0
 26 32  1  6  0  0  0
 27 28  1  0  0  0  0
 27 29  1  1  0  0  0
 29 30  1  0  0  0  0
 31 32  1  6  0  0  0
 31 33  1  0  0  0  0
 31 39  1  0  0  0  0
 33 36  1  0  0  0  0
 33 41  1  6  0  0  0
 34 40  1  0  0  0  0
 35 48  1  0  0  0  0
 36 37  1  0  0  0  0
 36 45  1  1  0  0  0
 37 38  1  0  0  0  0
 37 44  1  6  0  0  0
 38 39  1  0  0  0  0
 38 40  1  6  0  0  0
 43 47  1  0  0  0  0
 46 48  1  0  0  0  0
 48 43  1  6  0  0  0
M  END
>  <CHROM.1>
-79.52254490,84.59926550,-59.20369949,63.15437259,-99.93717880,-147.82886079
-102.67156615,61.12847591,-159.09523232,3.76065766,-73.85465293,-144.50527047
-87.75667959,26.29981218,12.09989872,10.20378302,-0.33203145,-1.40669000
0.98369183

>  <Name>
ligand

>  <RI>
0

>  <Rbt.Current_Directory>
/home/itssahil/PROJECTS/Mol_Feturizer/New_Systems/rnas/4PDQ

>  <Rbt.Executable>
rbdock ($Id: //depot/dev/client3/rdock/2013.1/src/exe/rbdock.cxx#4 $)

>  <Rbt.Library>
libRbt.so (2013.1, Build901 2013/11/27)

>  <Rbt.Parameter_File>
/export/apps/rDock/src/rDock_2013.1_src/data/scripts/dock_solv.prm

>  <Rbt.Receptor>
prm/blind_docking_100.prm

>  <SCORE>
29.1133

>  <SCORE.INTER>
7.63538

>  <SCORE.INTER.CONST>
1

>  <SCORE.INTER.POLAR>
0

>  <SCORE.INTER.ROT>
13

>  <SCORE.INTER.SOLV>
32.9708

>  <SCORE.INTER.VDW>
-18.1667

>  <SCORE.INTER.norm>
0.155824

>  <SCORE.INTRA>
16.7242

>  <SCORE.INTRA.DIHEDRAL>
-2.07748

>  <SCORE.INTRA.DIHEDRAL.0>
34.5115

>  <SCORE.INTRA.POLAR>
0

>  <SCORE.INTRA.POLAR.0>
0

>  <SCORE.INTRA.REPUL>
0.000139444

>  <SCORE.INTRA.REPUL.0>
0

>  <SCORE.INTRA.SOLV>
9.50402

>  <SCORE.INTRA.SOLV.lig_0>
-122.812

>  <SCORE.INTRA.VDW>
13.0102

>  <SCORE.INTRA.VDW.0>
-7.46208

>  <SCORE.INTRA.norm>
0.341311

>  <SCORE.RESTR>
4.75369

>  <SCORE.RESTR.CAVITY>
4.75369

>  <SCORE.RESTR.norm>
0.0970141

>  <SCORE.SYSTEM>
0

>  <SCORE.SYSTEM.CONST>
0

>  <SCORE.SYSTEM.DIHEDRAL>
0

>  <SCORE.SYSTEM.SOLV>
0

>  <SCORE.SYSTEM.norm>
0

>  <SCORE.heavy>
49

>  <SCORE.norm>
0.594149

>  <RMSD>
11.300

$$$$
ligand
 OpenBabel11021811513D
libRbt.so/2013.1/901 2013/11/27
 49 52  0  0  0  0  0  0  0  0999 V2000
   27.0463    4.4277   11.4847 C   0  0  2  0  0  0  0  0  0  0  0  0
   27.9589    5.4851   11.4507 O   0  0  0  0  0  0  0  0  0  0  0  0
   27.8212    3.0578   11.4936 C   0  0  2  0  0  0  0  0  0  0  0  0
   28.7339    3.0093   12.7089 N   0  0  0  0  0  0  0  0  0  0  0  0
   23.3840   10.0987    9.1490 O   0  0  0  0  0  0  0  0  0  0  0  0
   28.6196    2.8820   10.1808 C   0  0  2  0  0  0  0  0  0  0  0  0
   22.7796   15.2182    9.8465 N   0  0  0  0  0  0  0  0  0  0  0  0
   27.6796    2.9544    8.9673 C   0  0  2  0  0  0  0  0  0  0  0  0
   26.8779    4.3238    8.9253 C   0  0  2  0  0  0  0  0  0  0  0  0
   26.1490    4.4795   10.2612 O   0  0  0  0  0  0  0  0  0  0  0  0
   25.8878    4.3671    7.7256 C   0  0  0  0  0  0  0  0  0  0  0  0
   24.9337    5.4145    7.8070 N   0  0  0  0  0  0  0  0  0  0  0  0
   25.8420    9.1066   10.3526 C   0  0  2  0  0  0  0  0  0  0  0  0
   25.4827   10.5541   10.3004 N   0  0  0  0  0  0  0  0  0  0  0  0
   26.0764    8.7366   11.8968 C   0  0  0  0  0  0  0  0  0  0  0  0
   26.4380    7.2118   12.0469 C   0  0  2  0  0  0  0  0  0  0  0  0
   26.6750    6.8647   13.4559 N   0  0  0  0  0  0  0  0  0  0  0  0
   27.7152    6.8848   11.2476 C   0  0  2  0  0  0  0  0  0  0  0  0
   27.5189    7.2425    9.7191 C   0  0  2  0  0  0  0  0  0  0  0  0
   28.7839    6.8883    9.0454 O   0  0  0  0  0  0  0  0  0  0  0  0
   27.2147    8.8210    9.5880 C   0  0  1  0  0  0  0  0  0  0  0  0
   27.0532    9.1168    8.2367 O   0  0  0  0  0  0  0  0  0  0  0  0
   29.1044    7.1287    7.8197 C   0  0  1  0  0  0  0  0  0  0  0  0
   30.5250    6.6590    7.3886 C   0  0  2  0  0  0  0  0  0  0  0  0
   31.4128    7.7100    7.6057 O   0  0  0  0  0  0  0  0  0  0  0  0
   30.2629    6.4568    5.9539 C   0  0  1  0  0  0  0  0  0  0  0  0
   28.8403    5.8347    5.8026 C   0  0  2  0  0  0  0  0  0  0  0  0
   28.1959    6.5582    6.8223 O   0  0  0  0  0  0  0  0  0  0  0  0
   28.7119    4.3109    5.8220 C   0  0  0  0  0  0  0  0  0  0  0  0
   29.4060    3.8401    4.6822 O   0  0  0  0  0  0  0  0  0  0  0  0
   31.6282    8.2622    5.0053 C   0  0  2  0  0  0  0  0  0  0  0  0
   30.3783    7.8042    5.3079 O   0  0  0  0  0  0  0  0  0  0  0  0
   31.6088    9.6876    4.5374 C   0  0  1  0  0  0  0  0  0  0  0  0
   34.3978    5.4195    2.8592 N   0  0  0  0  0  0  0  0  0  0  0  0
   24.4243   13.0984    8.4783 O   0  0  0  0  0  0  0  0  0  0  0  0
   33.0741   10.1336    4.1578 C   0  0  2  0  0  0  0  0  0  0  0  0
   33.7466    9.2257    3.0704 C   0  0  1  0  0  0  0  0  0  0  0  0
   33.7623    7.8626    3.5470 C   0  0  1  0  0  0  0  0  0  0  0  0
   32.3635    7.4091    3.9196 O   0  0  0  0  0  0  0  0  0  0  0  0
   34.3982    6.8962    2.4539 C   0  0  0  0  0  0  0  0  0  0  0  0
   30.8037    9.8071    3.3868 N   0  0  0  0  0  0  0  0  0  0  0  0
   29.1395    1.8642   10.1941 O   0  0  0  0  0  0  0  0  0  0  0  0
   22.6126   12.6734    9.7809 C   0  0  0  0  0  0  0  0  0  0  0  0
   33.1136    9.2779    2.1142 O   0  0  0  0  0  0  0  0  0  0  0  0
   33.7272   10.0585    5.1017 O   0  0  0  0  0  0  0  0  0  0  0  0
   24.1823   10.9078    9.6426 C   0  0  0  0  0  0  0  0  0  0  0  0
   22.3838   13.9310   10.2928 C   0  0  0  0  0  0  0  0  0  0  0  0
   23.9300   12.5036    9.6763 C   0  0  1  0  0  0  0  0  0  0  0  0
   26.7476    1.9028    9.0199 F   0  0  0  0  0  0  0  0  0  0  0  0
  1  2  1  6  0  0  0
  1 10  1  0  0  0  0
  1  3  1  0  0  0  0
  3  4  1  1  0  0  0
  3  6  1  0  0  0  0
  5 46  2  0  0  0  0
  6 42  1  1  0  0  0
  6  8  1  0  0  0  0
  7 47  1  0  0  0  0
  8  9  1  0  0  0  0
  8 49  1  1  0  0  0
  9 10  1  0  0  0  0
  9 11  1  6  0  0  0
 11 12  1  0  0  0  0
 13 14  1  1  0  0  0
 13 15  1  0  0  0  0
 13 21  1  0  0  0  0
 14 46  1  0  0  0  0
 15 16  1  0  0  0  0
 16 17  1  1  0  0  0
 16 18  1  0  0  0  0
 18  2  1  6  0  0  0
 18 19  1  0  0  0  0
 19 20  1  6  0  0  0
 19 21  1  0  0  0  0
 21 22  1  6  0  0  0
 23 20  1  1  0  0  0
 23 24  1  0  0  0  0
 23 28  1  0  0  0  0
 24 25  1  6  0  0  0
 24 26  1  0  0  0  0
 26 27  1  0  0  0  0
 26 32  1  6  0  0  0
 27 28  1  0  0  0  0
 27 29  1  1  0  0  0
 29 30  1  0  0  0  0
 31 32  1  6  0  0  0
 31 33  1  0  0  0  0
 31 39  1  0  0  0  0
 33 36  1  0  0  0  0
 33 41  1  6  0  0  0
 34 40  1  0  0  0  0
 35 48  1  0  0  0  0
 36 37  1  0  0  0  0
 36 45  1  1  0  0  0
 37 38  1  0  0  0  0
 37 44  1  6  0  0  0
 38 39  1  0  0  0  0
 38 40  1  6  0  0  0
 43 47  1  0  0  0  0
 46 48  1  0  0  0  0
 48 43  1  6  0  0  0
M  END
>  <CHROM.1>
170.48518148,40.67383264,166.24808766,-123.49884833,-173.08848298,178.92897057
81.49569417,-64.14687423,-172.32576785,-177.55628015,56.56235135,-82.16144052
-88.03105254,28.36545108,7.39698557,7.94024174,-3.06637041,0.71683641,-0.38357156

>  <Name>
ligand

>  <RI>
0

>  <Rbt.Current_Directory>
/home/itssahil/PROJECTS/Mol_Feturizer/New_Systems/rnas/4PDQ

>  <Rbt.Executable>
rbdock ($Id: //depot/dev/client3/rdock/2013.1/src/exe/rbdock.cxx#4 $)

>  <Rbt.Library>
libRbt.so (2013.1, Build901 2013/11/27)

>  <Rbt.Parameter_File>
/export/apps/rDock/src/rDock_2013.1_src/data/scripts/dock_solv.prm

>  <Rbt.Receptor>
prm/pocket_docking_7.prm

>  <SCORE>
-13.8834

>  <SCORE.INTER>
-3.04332

>  <SCORE.INTER.CONST>
1

>  <SCORE.INTER.POLAR>
0

>  <SCORE.INTER.ROT>
13

>  <SCORE.INTER.SOLV>
17.3672

>  <SCORE.INTER.VDW>
-20.0846

>  <SCORE.INTER.norm>
-0.0621086

>  <SCORE.INTRA>
-10.84

>  <SCORE.INTRA.DIHEDRAL>
-24.4825

>  <SCORE.INTRA.DIHEDRAL.0>
34.5115

>  <SCORE.INTRA.POLAR>
0

>  <SCORE.INTRA.POLAR.0>
0

>  <SCORE.INTRA.REPUL>
0

>  <SCORE.INTRA.REPUL.0>
0

>  <SCORE.INTRA.SOLV>
-1.1854

>  <SCORE.INTRA.SOLV.lig_0>
-122.812

>  <SCORE.INTRA.VDW>
1.99392

>  <SCORE.INTRA.VDW.0>
-7.46208

>  <SCORE.INTRA.norm>
-0.221225

>  <SCORE.RESTR>
0

>  <SCORE.RESTR.CAVITY>
0

>  <SCORE.RESTR.norm>
0

>  <SCORE.SYSTEM>
0

>  <SCORE.SYSTEM.CONST>
0

>  <SCORE.SYSTEM.DIHEDRAL>
0

>  <SCORE.SYSTEM.SOLV>
0

>  <SCORE.SYSTEM.norm>
0

>  <SCORE.heavy>
49

>  <SCORE.norm>
-0.283334

>  <RMSD>
11.306

$$$$
ligand
 OpenBabel11021811513D
libRbt.so/2013.1/901 2013/11/27
 49 52  0  0  0  0  0  0  0  0999 V2000
   27.2123    7.5586   13.0056 C   0  0  2  0  0  0  0  0  0  0  0  0
   28.1461    8.5687   12.7610 O   0  0  0  0  0  0  0  0  0  0  0  0
   27.7816    6.5580   14.0788 C   0  0  2  0  0  0  0  0  0  0  0  0
   28.0855    7.3201   15.3591 N   0  0  0  0  0  0  0  0  0  0  0  0
   23.3883   13.1565   10.7817 O   0  0  0  0  0  0  0  0  0  0  0  0
   29.0409    5.8437   13.5349 C   0  0  2  0  0  0  0  0  0  0  0  0
   24.5056   18.1066    8.9432 N   0  0  0  0  0  0  0  0  0  0  0  0
   28.7138    5.0978   12.2317 C   0  0  2  0  0  0  0  0  0  0  0  0
   28.1343    6.0758   11.1239 C   0  0  2  0  0  0  0  0  0  0  0  0
   26.9260    6.7974   11.7236 O   0  0  0  0  0  0  0  0  0  0  0  0
   27.7536    5.3047    9.8269 C   0  0  0  0  0  0  0  0  0  0  0  0
   28.8274    4.5697    9.2606 N   0  0  0  0  0  0  0  0  0  0  0  0
   26.0294   12.1011   11.4027 C   0  0  2  0  0  0  0  0  0  0  0  0
   25.7874   13.5194   11.0067 N   0  0  0  0  0  0  0  0  0  0  0  0
   26.8746   12.1322   12.7669 C   0  0  0  0  0  0  0  0  0  0  0  0
   27.1550   10.6679   13.2722 C   0  0  2  0  0  0  0  0  0  0  0  0
   27.9464   10.6826   14.5113 N   0  0  0  0  0  0  0  0  0  0  0  0
   27.9402    9.8766   12.2072 C   0  0  2  0  0  0  0  0  0  0  0  0
   27.1352    9.8303   10.8461 C   0  0  2  0  0  0  0  0  0  0  0  0
   27.9612    9.0509    9.9029 O   0  0  0  0  0  0  0  0  0  0  0  0
   26.9185   11.3385   10.3170 C   0  0  1  0  0  0  0  0  0  0  0  0
   26.2161   11.2760    9.1160 O   0  0  0  0  0  0  0  0  0  0  0  0
   27.9235    9.0993    8.6148 C   0  0  1  0  0  0  0  0  0  0  0  0
   28.8915    8.1304    7.8741 C   0  0  2  0  0  0  0  0  0  0  0  0
   30.0916    8.8021    7.6539 O   0  0  0  0  0  0  0  0  0  0  0  0
   28.1248    7.9651    6.6279 C   0  0  1  0  0  0  0  0  0  0  0  0
   26.6107    7.8883    6.9954 C   0  0  2  0  0  0  0  0  0  0  0  0
   26.6062    8.8443    8.0271 O   0  0  0  0  0  0  0  0  0  0  0  0
   26.0085    6.5150    7.2962 C   0  0  0  0  0  0  0  0  0  0  0  0
   26.1273    5.7607    6.1047 O   0  0  0  0  0  0  0  0  0  0  0  0
   28.1307    9.0830    4.4431 C   0  0  2  0  0  0  0  0  0  0  0  0
   28.4536    9.1476    5.7679 O   0  0  0  0  0  0  0  0  0  0  0  0
   28.3113   10.4032    3.7533 C   0  0  1  0  0  0  0  0  0  0  0  0
   24.5785    6.5029    3.0022 N   0  0  0  0  0  0  0  0  0  0  0  0
   25.1049   16.2478   11.1708 O   0  0  0  0  0  0  0  0  0  0  0  0
   27.8728   10.2689    2.2435 C   0  0  2  0  0  0  0  0  0  0  0  0
   26.3980    9.7693    2.0584 C   0  0  1  0  0  0  0  0  0  0  0  0
   26.2517    8.4947    2.7214 C   0  0  1  0  0  0  0  0  0  0  0  0
   26.6679    8.5969    4.1766 O   0  0  0  0  0  0  0  0  0  0  0  0
   24.7546    7.9690    2.5965 C   0  0  0  0  0  0  0  0  0  0  0  0
   27.4966   11.3802    4.3599 N   0  0  0  0  0  0  0  0  0  0  0  0
   29.4107    5.0945   14.3148 O   0  0  0  0  0  0  0  0  0  0  0  0
   24.6749   15.5632    9.0480 C   0  0  0  0  0  0  0  0  0  0  0  0
   25.6943   10.5289    2.5537 O   0  0  0  0  0  0  0  0  0  0  0  0
   28.5522    9.4882    1.7413 O   0  0  0  0  0  0  0  0  0  0  0  0
   24.3696   13.9104   10.7140 C   0  0  0  0  0  0  0  0  0  0  0  0
   24.2420   16.7702    8.5463 C   0  0  0  0  0  0  0  0  0  0  0  0
   24.2691   15.4728   10.3139 C   0  0  1  0  0  0  0  0  0  0  0  0
   27.7553    4.0991   12.4790 F   0  0  0  0  0  0  0  0  0  0  0  0
  1  2  1  6  0  0  0
  1 10  1  0  0  0  0
  1  3  1  0  0  0  0
  3  4  1  1  0  0  0
  3  6  1  0  0  0  0
  5 46  2  0  0  0  0
  6 42  1  1  0  0  0
  6  8  1  0  0  0  0
  7 47  1  0  0  0  0
  8  9  1  0  0  0  0
  8 49  1  1  0  0  0
  9 10  1  0  0  0  0
  9 11  1  6  0  0  0
 11 12  1  0  0  0  0
 13 14  1  6  0  0  0
 13 15  1  0  0  0  0
 13 21  1  0  0  0  0
 14 46  1  0  0  0  0
 15 16  1  0  0  0  0
 16 17  1  1  0  0  0
 16 18  1  0  0  0  0
 18  2  1  1  0  0  0
 18 19  1  0  0  0  0
 19 20  1  6  0  0  0
 19 21  1  0  0  0  0
 21 22  1  6  0  0  0
 23 20  1  1  0  0  0
 23 24  1  0  0  0  0
 23 28  1  0  0  0  0
 24 25  1  6  0  0  0
 24 26  1  0  0  0  0
 26 27  1  0  0  0  0
 26 32  1  6  0  0  0
 27 28  1  0  0  0  0
 27 29  1  1  0  0  0
 29 30  1  0  0  0  0
 31 32  1  1  0  0  0
 31 33  1  0  0  0  0
 31 39  1  0  0  0  0
 33 36  1  0  0  0  0
 33 41  1  1  0  0  0
 34 40  1  0  0  0  0
 35 48  1  0  0  0  0
 36 37  1  0  0  0  0
 36 45  1  6  0  0  0
 37 38  1  0  0  0  0
 37 44  1  1  0  0  0
 38 39  1  0  0  0  0
 38 40  1  1  0  0  0
 43 47  1  0  0  0  0
 46 48  1  0  0  0  0
 48 43  1  6  0  0  0
M  END
>  <CHROM.1>
-158.90955829,69.35121342,-56.92403925,-128.11372423,-156.77271134,-178.46509978
164.64501500,-62.85904369,170.84707042,167.55855016,60.31701232,-78.09309954
137.06817147,26.98098292,9.49098161,8.83698776,-1.14518665,1.24698609,-1.73970813

>  <Name>
ligand

>  <RI>
0

>  <Rbt.Current_Directory>
/home/itssahil/PROJECTS/Mol_Feturizer/New_Systems/rnas/4PDQ

>  <Rbt.Executable>
rbdock ($Id: //depot/dev/client3/rdock/2013.1/src/exe/rbdock.cxx#4 $)

>  <Rbt.Library>
libRbt.so (2013.1, Build901 2013/11/27)

>  <Rbt.Parameter_File>
/export/apps/rDock/src/rDock_2013.1_src/data/scripts/dock_solv.prm

>  <Rbt.Receptor>
prm/pocket_docking_8.prm

>  <SCORE>
-7.80827

>  <SCORE.INTER>
2.8959

>  <SCORE.INTER.CONST>
1

>  <SCORE.INTER.POLAR>
0

>  <SCORE.INTER.ROT>
13

>  <SCORE.INTER.SOLV>
11.8484

>  <SCORE.INTER.VDW>
-14.2855

>  <SCORE.INTER.norm>
0.0591

>  <SCORE.INTRA>
-10.7107

>  <SCORE.INTRA.DIHEDRAL>
-24.2076

>  <SCORE.INTRA.DIHEDRAL.0>
34.5115

>  <SCORE.INTRA.POLAR>
0

>  <SCORE.INTRA.POLAR.0>
0

>  <SCORE.INTRA.REPUL>
0

>  <SCORE.INTRA.REPUL.0>
0

>  <SCORE.INTRA.SOLV>
1.06505

>  <SCORE.INTRA.SOLV.lig_0>
-122.812

>  <SCORE.INTRA.VDW>
0.860515

>  <SCORE.INTRA.VDW.0>
-7.46208

>  <SCORE.INTRA.norm>
-0.218586

>  <SCORE.RESTR>
0.0065656

>  <SCORE.RESTR.CAVITY>
0.0065656

>  <SCORE.RESTR.norm>
0.000133992

>  <SCORE.SYSTEM>
0

>  <SCORE.SYSTEM.CONST>
0

>  <SCORE.SYSTEM.DIHEDRAL>
0

>  <SCORE.SYSTEM.SOLV>
0

>  <SCORE.SYSTEM.norm>
0

>  <SCORE.heavy>
49

>  <SCORE.norm>
-0.159352

>  <RMSD>
11.326

$$$$
ligand
 OpenBabel11021811513D
libRbt.so/2013.1/901 2013/11/27
 49 52  0  0  0  0  0  0  0  0999 V2000
   23.1272   13.9825    8.1752 C   0  0  2  0  0  0  0  0  0  0  0  0
   24.0883   14.7726    8.8108 O   0  0  0  0  0  0  0  0  0  0  0  0
   21.8733   13.8156    9.1117 C   0  0  2  0  0  0  0  0  0  0  0  0
   21.3035   15.1888    9.4312 N   0  0  0  0  0  0  0  0  0  0  0  0
   25.1848   20.2554   10.0667 O   0  0  0  0  0  0  0  0  0  0  0  0
   22.2606   13.0518   10.3994 C   0  0  2  0  0  0  0  0  0  0  0  0
   22.9864   23.0590    6.9689 N   0  0  0  0  0  0  0  0  0  0  0  0
   22.8517   11.6769   10.0505 C   0  0  2  0  0  0  0  0  0  0  0  0
   24.1194   11.8048    9.1039 C   0  0  2  0  0  0  0  0  0  0  0  0
   23.7032   12.6110    7.8721 O   0  0  0  0  0  0  0  0  0  0  0  0
   24.6788   10.4071    8.7098 C   0  0  0  0  0  0  0  0  0  0  0  0
   23.6792    9.4793    8.3173 N   0  0  0  0  0  0  0  0  0  0  0  0
   22.7243   18.8449    9.4102 C   0  0  2  0  0  0  0  0  0  0  0  0
   22.7726   20.3028    9.7249 N   0  0  0  0  0  0  0  0  0  0  0  0
   23.5625   18.0901   10.5523 C   0  0  0  0  0  0  0  0  0  0  0  0
   23.5429   16.5348   10.3100 C   0  0  2  0  0  0  0  0  0  0  0  0
   24.3247   15.8333   11.3389 N   0  0  0  0  0  0  0  0  0  0  0  0
   24.1491   16.2014    8.9322 C   0  0  2  0  0  0  0  0  0  0  0  0
   23.3473   16.9344    7.7821 C   0  0  2  0  0  0  0  0  0  0  0  0
   23.9961   16.5475    6.5137 O   0  0  0  0  0  0  0  0  0  0  0  0
   23.4380   18.5275    8.0171 C   0  0  1  0  0  0  0  0  0  0  0  0
   22.7338   19.1540    6.9918 O   0  0  0  0  0  0  0  0  0  0  0  0
   25.1723   16.0397    6.3667 C   0  0  1  0  0  0  0  0  0  0  0  0
   25.6464   15.8487    4.8959 C   0  0  2  0  0  0  0  0  0  0  0  0
   25.2738   14.5717    4.4834 O   0  0  0  0  0  0  0  0  0  0  0  0
   27.0985   15.9455    5.1195 C   0  0  1  0  0  0  0  0  0  0  0  0
   27.3529   17.0525    6.1888 C   0  0  2  0  0  0  0  0  0  0  0  0
   26.2509   16.7845    7.0207 O   0  0  0  0  0  0  0  0  0  0  0  0
   27.5474   18.4912    5.7078 C   0  0  0  0  0  0  0  0  0  0  0  0
   27.6112   19.2929    6.8722 O   0  0  0  0  0  0  0  0  0  0  0  0
   28.1720   14.4931    6.7812 C   0  0  2  0  0  0  0  0  0  0  0  0
   27.5492   14.5891    5.5703 O   0  0  0  0  0  0  0  0  0  0  0  0
   28.7069   13.1141    7.0329 C   0  0  1  0  0  0  0  0  0  0  0  0
   27.4783   15.3188   11.8946 N   0  0  0  0  0  0  0  0  0  0  0  0
   24.9780   22.8425   11.3264 O   0  0  0  0  0  0  0  0  0  0  0  0
   29.3658   13.0619    8.4658 C   0  0  2  0  0  0  0  0  0  0  0  0
   28.3904   13.4735    9.6225 C   0  0  1  0  0  0  0  0  0  0  0  0
   27.8972   14.8059    9.3634 C   0  0  1  0  0  0  0  0  0  0  0  0
   27.2583   14.8830    7.9897 O   0  0  0  0  0  0  0  0  0  0  0  0
   26.8667   15.2492   10.4925 C   0  0  0  0  0  0  0  0  0  0  0  0
   27.6561   12.1754    7.0006 N   0  0  0  0  0  0  0  0  0  0  0  0
   21.3269   12.9079   11.0427 O   0  0  0  0  0  0  0  0  0  0  0  0
   24.2323   23.0882    9.1949 C   0  0  0  0  0  0  0  0  0  0  0  0
   27.5047   12.7434    9.6255 O   0  0  0  0  0  0  0  0  0  0  0  0
   30.2384   13.8111    8.4862 O   0  0  0  0  0  0  0  0  0  0  0  0
   24.1168   20.8837   10.0479 C   0  0  0  0  0  0  0  0  0  0  0  0
   23.1733   22.8240    8.3555 C   0  0  0  0  0  0  0  0  0  0  0  0
   24.0070   22.4671   10.3519 C   0  0  1  0  0  0  0  0  0  0  0  0
   21.8881   10.8952    9.3888 F   0  0  0  0  0  0  0  0  0  0  0  0
  1  2  1  1  0  0  0
  1 10  1  0  0  0  0
  1  3  1  0  0  0  0
  3  4  1  1  0  0  0
  3  6  1  0  0  0  0
  5 46  2  0  0  0  0
  6 42  1  1  0  0  0
  6  8  1  0  0  0  0
  7 47  1  0  0  0  0
  8  9  1  0  0  0  0
  8 49  1  6  0  0  0
  9 10  1  0  0  0  0
  9 11  1  6  0  0  0
 11 12  1  0  0  0  0
 13 14  1  1  0  0  0
 13 15  1  0  0  0  0
 13 21  1  0  0  0  0
 14 46  1  0  0  0  0
 15 16  1  0  0  0  0
 16 17  1  1  0  0  0
 16 18  1  0  0  0  0
 18  2  1  6  0  0  0
 18 19  1  0  0  0  0
 19 20  1  6  0  0  0
 19 21  1  0  0  0  0
 21 22  1  6  0  0  0
 23 20  1  6  0  0  0
 23 24  1  0  0  0  0
 23 28  1  0  0  0  0
 24 25  1  1  0  0  0
 24 26  1  0  0  0  0
 26 27  1  0  0  0  0
 26 32  1  1  0  0  0
 27 28  1  0  0  0  0
 27 29  1  6  0  0  0
 29 30  1  0  0  0  0
 31 32  1  6  0  0  0
 31 33  1  0  0  0  0
 31 39  1  0  0  0  0
 33 36  1  0  0  0  0
 33 41  1  1  0  0  0
 34 40  1  0  0  0  0
 35 48  1  0  0  0  0
 36 37  1  0  0  0  0
 36 45  1  6  0  0  0
 37 38  1  0  0  0  0
 37 44  1  6  0  0  0
 38 39  1  0  0  0  0
 38 40  1  1  0  0  0
 43 47  1  0  0  0  0
 46 48  1  0  0  0  0
 48 43  1  6  0  0  0
M  END
>  <CHROM.1>
-80.25463129,96.57869137,45.37542076,47.89816302,-17.57525811,-174.71939986
-121.88013604,173.80592306,-173.41796724,62.14412697,-169.30988110,-172.31448229
-33.74744660,25.04198514,15.98699399,8.46578970,1.39581885,-0.46205175,3.11350866

>  <Name>
ligand

>  <RI>
0

>  <Rbt.Current_Directory>
/home/itssahil/PROJECTS/Mol_Feturizer/New_Systems/rnas/4PDQ

>  <Rbt.Executable>
rbdock ($Id: //depot/dev/client3/rdock/2013.1/src/exe/rbdock.cxx#4 $)

>  <Rbt.Library>
libRbt.so (2013.1, Build901 2013/11/27)

>  <Rbt.Parameter_File>
/export/apps/rDock/src/rDock_2013.1_src/data/scripts/dock_solv.prm

>  <Rbt.Receptor>
prm/blind_docking_40.prm

>  <SCORE>
15.1441

>  <SCORE.INTER>
4.58173

>  <SCORE.INTER.CONST>
1

>  <SCORE.INTER.POLAR>
0

>  <SCORE.INTER.ROT>
13

>  <SCORE.INTER.SOLV>
29.5718

>  <SCORE.INTER.VDW>
-19.0694

>  <SCORE.INTER.norm>
0.0935046

>  <SCORE.INTRA>
7.00257

>  <SCORE.INTRA.DIHEDRAL>
-11.0763

>  <SCORE.INTRA.DIHEDRAL.0>
34.5115

>  <SCORE.INTRA.POLAR>
0

>  <SCORE.INTRA.POLAR.0>
0

>  <SCORE.INTRA.REPUL>
0.25996

>  <SCORE.INTRA.REPUL.0>
0

>  <SCORE.INTRA.SOLV>
8.93856

>  <SCORE.INTRA.SOLV.lig_0>
-122.812

>  <SCORE.INTRA.VDW>
6.77164

>  <SCORE.INTRA.VDW.0>
-7.46208

>  <SCORE.INTRA.norm>
0.142909

>  <SCORE.RESTR>
3.55983

>  <SCORE.RESTR.CAVITY>
3.55983

>  <SCORE.RESTR.norm>
0.0726495

>  <SCORE.SYSTEM>
0

>  <SCORE.SYSTEM.CONST>
0

>  <SCORE.SYSTEM.DIHEDRAL>
0

>  <SCORE.SYSTEM.SOLV>
0

>  <SCORE.SYSTEM.norm>
0

>  <SCORE.heavy>
49

>  <SCORE.norm>
0.309064

>  <RMSD>
11.331

$$$$
ligand
 OpenBabel11021811513D
libRbt.so/2013.1/901 2013/11/27
 49 52  0  0  0  0  0  0  0  0999 V2000
   25.6662   15.7717    9.9155 C   0  0  2  0  0  0  0  0  0  0  0  0
   26.2584   15.0643   10.9648 O   0  0  0  0  0  0  0  0  0  0  0  0
   25.1591   17.1678   10.4361 C   0  0  2  0  0  0  0  0  0  0  0  0
   26.3364   17.9463   11.0021 N   0  0  0  0  0  0  0  0  0  0  0  0
   25.4154    9.3313   11.6070 O   0  0  0  0  0  0  0  0  0  0  0  0
   24.0477   16.9768   11.4944 C   0  0  2  0  0  0  0  0  0  0  0  0
   26.2988    5.8514   16.0205 N   0  0  0  0  0  0  0  0  0  0  0  0
   22.8789   16.1713   10.9056 C   0  0  2  0  0  0  0  0  0  0  0  0
   23.3528   14.7551   10.3675 C   0  0  2  0  0  0  0  0  0  0  0  0
   24.4855   14.9909    9.3667 O   0  0  0  0  0  0  0  0  0  0  0  0
   22.1752   13.9682    9.7228 C   0  0  0  0  0  0  0  0  0  0  0  0
   22.5392   12.6837    9.2417 N   0  0  0  0  0  0  0  0  0  0  0  0
   27.6724   11.1137   12.0584 C   0  0  2  0  0  0  0  0  0  0  0  0
   27.6392    9.6992   12.5330 N   0  0  0  0  0  0  0  0  0  0  0  0
   26.7845   11.9734   13.0825 C   0  0  0  0  0  0  0  0  0  0  0  0
   26.7850   13.4921   12.6680 C   0  0  2  0  0  0  0  0  0  0  0  0
   25.9580   14.2875   13.5875 N   0  0  0  0  0  0  0  0  0  0  0  0
   26.2184   13.6570   11.2437 C   0  0  2  0  0  0  0  0  0  0  0  0
   27.0699   12.8172   10.2081 C   0  0  2  0  0  0  0  0  0  0  0  0
   26.4562   13.0466    8.8851 O   0  0  0  0  0  0  0  0  0  0  0  0
   26.9992   11.2587   10.6174 C   0  0  1  0  0  0  0  0  0  0  0  0
   27.7472   10.5366    9.6907 O   0  0  0  0  0  0  0  0  0  0  0  0
   26.6666   14.0428    8.0939 C   0  0  1  0  0  0  0  0  0  0  0  0
   28.1592   14.3394    7.7638 C   0  0  2  0  0  0  0  0  0  0  0  0
   28.6361   15.2540    8.6998 O   0  0  0  0  0  0  0  0  0  0  0  0
   27.9718   14.9618    6.4426 C   0  0  1  0  0  0  0  0  0  0  0  0
   26.8464   14.1833    5.6938 C   0  0  2  0  0  0  0  0  0  0  0  0
   26.0007   13.9474    6.7927 O   0  0  0  0  0  0  0  0  0  0  0  0
   27.2463   12.9833    4.8342 C   0  0  0  0  0  0  0  0  0  0  0  0
   26.0604   12.5317    4.2078 O   0  0  0  0  0  0  0  0  0  0  0  0
   26.2935   16.7122    6.8203 C   0  0  2  0  0  0  0  0  0  0  0  0
   27.6155   16.3953    6.6961 O   0  0  0  0  0  0  0  0  0  0  0  0
   25.6460   16.9632    5.4903 C   0  0  1  0  0  0  0  0  0  0  0  0
   25.3124   20.8115    8.4374 N   0  0  0  0  0  0  0  0  0  0  0  0
   27.6514    6.7518   12.2068 O   0  0  0  0  0  0  0  0  0  0  0  0
   24.1382   17.3727    5.7114 C   0  0  2  0  0  0  0  0  0  0  0  0
   23.9553   18.6251    6.6371 C   0  0  1  0  0  0  0  0  0  0  0  0
   24.5771   18.3561    7.9124 C   0  0  1  0  0  0  0  0  0  0  0  0
   26.0294   17.9592    7.7273 O   0  0  0  0  0  0  0  0  0  0  0  0
   24.4537   19.6202    8.8715 C   0  0  0  0  0  0  0  0  0  0  0  0
   26.2952   18.0259    4.8303 N   0  0  0  0  0  0  0  0  0  0  0  0
   23.6685   18.0027   11.8261 O   0  0  0  0  0  0  0  0  0  0  0  0
   26.6669    7.5029   14.1112 C   0  0  0  0  0  0  0  0  0  0  0  0
   24.4846   19.5176    6.1463 O   0  0  0  0  0  0  0  0  0  0  0  0
   23.6016   16.4970    6.2294 O   0  0  0  0  0  0  0  0  0  0  0  0
   26.4023    8.9088   12.2259 C   0  0  0  0  0  0  0  0  0  0  0  0
   26.3691    6.2801   14.6699 C   0  0  0  0  0  0  0  0  0  0  0  0
   26.5231    7.3994   12.7906 C   0  0  1  0  0  0  0  0  0  0  0  0
   22.3028   16.8766    9.8342 F   0  0  0  0  0  0  0  0  0  0  0  0
  1  2  1  1  0  0  0
  1 10  1  0  0  0  0
  1  3  1  0  0  0  0
  3  4  1  1  0  0  0
  3  6  1  0  0  0  0
  5 46  2  0  0  0  0
  6 42  1  6  0  0  0
  6  8  1  0  0  0  0
  7 47  1  0  0  0  0
  8  9  1  0  0  0  0
  8 49  1  6  0  0  0
  9 10  1  0  0  0  0
  9 11  1  6  0  0  0
 11 12  1  0  0  0  0
 13 14  1  1  0  0  0
 13 15  1  0  0  0  0
 13 21  1  0  0  0  0
 14 46  1  0  0  0  0
 15 16  1  0  0  0  0
 16 17  1  1  0  0  0
 16 18  1  0  0  0  0
 18  2  1  6  0  0  0
 18 19  1  0  0  0  0
 19 20  1  6  0  0  0
 19 21  1  0  0  0  0
 21 22  1  6  0  0  0
 23 20  1  6  0  0  0
 23 24  1  0  0  0  0
 23 28  1  0  0  0  0
 24 25  1  1  0  0  0
 24 26  1  0  0  0  0
 26 27  1  0  0  0  0
 26 32  1  1  0  0  0
 27 28  1  0  0  0  0
 27 29  1  1  0  0  0
 29 30  1  0  0  0  0
 31 32  1  6  0  0  0
 31 33  1  0  0  0  0
 31 39  1  0  0  0  0
 33 36  1  0  0  0  0
 33 41  1  1  0  0  0
 34 40  1  0  0  0  0
 35 48  1  0  0  0  0
 36 37  1  0  0  0  0
 36 45  1  1  0  0  0
 37 38  1  0  0  0  0
 37 44  1  6  0  0  0
 38 39  1  0  0  0  0
 38 40  1  1  0  0  0
 43 47  1  0  0  0  0
 46 48  1  0  0  0  0
 48 43  1  1  0  0  0
M  END
>  <CHROM.1>
143.04098385,-168.28901136,-179.10443594,78.10528217,83.29882567,52.30172589
-90.50005874,-176.04790571,-85.57818421,-69.83184766,-176.56656021,-78.55852859
120.06311701,25.76695225,14.17112626,9.50680268,1.90335523,1.09673761,-0.85606405

>  <Name>
ligand

>  <RI>
0

>  <Rbt.Current_Directory>
/home/itssahil/PROJECTS/Mol_Feturizer/New_Systems/rnas/4PDQ

>  <Rbt.Executable>
rbdock ($Id: //depot/dev/client3/rdock/2013.1/src/exe/rbdock.cxx#4 $)

>  <Rbt.Library>
libRbt.so (2013.1, Build901 2013/11/27)

>  <Rbt.Parameter_File>
/export/apps/rDock/src/rDock_2013.1_src/data/scripts/dock_solv.prm

>  <Rbt.Receptor>
prm/blind_docking_80.prm

>  <SCORE>
8.05056

>  <SCORE.INTER>
1.93491

>  <SCORE.INTER.CONST>
1

>  <SCORE.INTER.POLAR>
0

>  <SCORE.INTER.ROT>
13

>  <SCORE.INTER.SOLV>
29.522

>  <SCORE.INTER.VDW>
-20.8174

>  <SCORE.INTER.norm>
0.039488

>  <SCORE.INTRA>
-1.95953

>  <SCORE.INTRA.DIHEDRAL>
-17.1675

>  <SCORE.INTRA.DIHEDRAL.0>
34.5115

>  <SCORE.INTRA.POLAR>
0

>  <SCORE.INTRA.POLAR.0>
0

>  <SCORE.INTRA.REPUL>
0.0980969

>  <SCORE.INTRA.REPUL.0>
0

>  <SCORE.INTRA.SOLV>
3.95213

>  <SCORE.INTRA.SOLV.lig_0>
-122.812

>  <SCORE.INTRA.VDW>
4.15767

>  <SCORE.INTRA.VDW.0>
-7.46208

>  <SCORE.INTRA.norm>
-0.0399905

>  <SCORE.RESTR>
8.07518

>  <SCORE.RESTR.CAVITY>
8.07518

>  <SCORE.RESTR.norm>
0.1648

>  <SCORE.SYSTEM>
0

>  <SCORE.SYSTEM.CONST>
0

>  <SCORE.SYSTEM.DIHEDRAL>
0

>  <SCORE.SYSTEM.SOLV>
0

>  <SCORE.SYSTEM.norm>
0

>  <SCORE.heavy>
49

>  <SCORE.norm>
0.164297

>  <RMSD>
11.332

$$$$
ligand
 OpenBabel11021811513D
libRbt.so/2013.1/901 2013/11/27
 49 52  0  0  0  0  0  0  0  0999 V2000
   25.5212   13.0426   12.0846 C   0  0  2  0  0  0  0  0  0  0  0  0
   26.3676   13.8175   11.2877 O   0  0  0  0  0  0  0  0  0  0  0  0
   26.3363   11.8632   12.7341 C   0  0  2  0  0  0  0  0  0  0  0  0
   27.4687   12.4404   13.5690 N   0  0  0  0  0  0  0  0  0  0  0  0
   26.0531   19.1527    9.0082 O   0  0  0  0  0  0  0  0  0  0  0  0
   26.8712   10.9109   11.6392 C   0  0  2  0  0  0  0  0  0  0  0  0
   22.6407   21.8212    8.0595 N   0  0  0  0  0  0  0  0  0  0  0  0
   25.7114   10.3565   10.7970 C   0  0  2  0  0  0  0  0  0  0  0  0
   24.8636   11.5188   10.1262 C   0  0  2  0  0  0  0  0  0  0  0  0
   24.4022   12.4622   11.2386 O   0  0  0  0  0  0  0  0  0  0  0  0
   23.6586   10.9523    9.3209 C   0  0  0  0  0  0  0  0  0  0  0  0
   22.5633   11.8491    9.2208 N   0  0  0  0  0  0  0  0  0  0  0  0
   25.3251   18.0159   11.5874 C   0  0  2  0  0  0  0  0  0  0  0  0
   25.3430   19.4832   11.3157 N   0  0  0  0  0  0  0  0  0  0  0  0
   26.8536   17.5446   11.7213 C   0  0  0  0  0  0  0  0  0  0  0  0
   26.9272   16.0036   12.0347 C   0  0  2  0  0  0  0  0  0  0  0  0
   28.3236   15.5553   12.1398 N   0  0  0  0  0  0  0  0  0  0  0  0
   26.2445   15.1972   10.9120 C   0  0  2  0  0  0  0  0  0  0  0  0
   24.7346   15.6411   10.7506 C   0  0  2  0  0  0  0  0  0  0  0  0
   24.1731   14.8120    9.6658 O   0  0  0  0  0  0  0  0  0  0  0  0
   24.6898   17.2068   10.3658 C   0  0  1  0  0  0  0  0  0  0  0  0
   23.3547   17.5757   10.2206 O   0  0  0  0  0  0  0  0  0  0  0  0
   24.4607   14.8774    8.4105 C   0  0  1  0  0  0  0  0  0  0  0  0
   23.4223   14.2333    7.4453 C   0  0  2  0  0  0  0  0  0  0  0  0
   23.7855   12.9039    7.2434 O   0  0  0  0  0  0  0  0  0  0  0  0
   23.6900   15.0566    6.2544 C   0  0  1  0  0  0  0  0  0  0  0  0
   23.9465   16.5219    6.7241 C   0  0  2  0  0  0  0  0  0  0  0  0
   24.6686   16.2331    7.8961 O   0  0  0  0  0  0  0  0  0  0  0  0
   22.7472   17.4637    6.8419 C   0  0  0  0  0  0  0  0  0  0  0  0
   22.0419   17.3620    5.6193 O   0  0  0  0  0  0  0  0  0  0  0  0
   26.0410   14.3532    6.2895 C   0  0  2  0  0  0  0  0  0  0  0  0
   24.8804   14.4479    5.5771 O   0  0  0  0  0  0  0  0  0  0  0  0
   27.2500   14.5855    5.4319 C   0  0  1  0  0  0  0  0  0  0  0  0
   28.7702   11.1618    9.4036 N   0  0  0  0  0  0  0  0  0  0  0  0
   26.2477   21.9140    8.5371 O   0  0  0  0  0  0  0  0  0  0  0  0
   28.5525   14.4108    6.3055 C   0  0  2  0  0  0  0  0  0  0  0  0
   28.6578   13.0118    7.0058 C   0  0  1  0  0  0  0  0  0  0  0  0
   27.4896   12.8157    7.8319 C   0  0  1  0  0  0  0  0  0  0  0  0
   26.2221   12.9789    7.0146 O   0  0  0  0  0  0  0  0  0  0  0  0
   27.5328   11.3859    8.5297 C   0  0  0  0  0  0  0  0  0  0  0  0
   27.2922   13.6373    4.3900 N   0  0  0  0  0  0  0  0  0  0  0  0
   27.4233   10.0429   12.1371 O   0  0  0  0  0  0  0  0  0  0  0  0
   24.4207   21.8746    9.8864 C   0  0  0  0  0  0  0  0  0  0  0  0
   28.6787   12.2014    6.1931 O   0  0  0  0  0  0  0  0  0  0  0  0
   28.5306   15.1993    7.1427 O   0  0  0  0  0  0  0  0  0  0  0  0
   25.7445   19.9135    9.9364 C   0  0  0  0  0  0  0  0  0  0  0  0
   23.7566   21.3517    8.7994 C   0  0  0  0  0  0  0  0  0  0  0  0
   25.7026   21.5228    9.7954 C   0  0  1  0  0  0  0  0  0  0  0  0
   24.8495    9.5983   11.6091 F   0  0  0  0  0  0  0  0  0  0  0  0
  1  2  1  6  0  0  0
  1 10  1  0  0  0  0
  1  3  1  0  0  0  0
  3  4  1  6  0  0  0
  3  6  1  0  0  0  0
  5 46  2  0  0  0  0
  6 42  1  1  0  0  0
  6  8  1  0  0  0  0
  7 47  1  0  0  0  0
  8  9  1  0  0  0  0
  8 49  1  1  0  0  0
  9 10  1  0  0  0  0
  9 11  1  1  0  0  0
 11 12  1  0  0  0  0
 13 14  1  6  0  0  0
 13 15  1  0  0  0  0
 13 21  1  0  0  0  0
 14 46  1  0  0  0  0
 15 16  1  0  0  0  0
 16 17  1  6  0  0  0
 16 18  1  0  0  0  0
 18  2  1  1  0  0  0
 18 19  1  0  0  0  0
 19 20  1  6  0  0  0
 19 21  1  0  0  0  0
 21 22  1  1  0  0  0
 23 20  1  1  0  0  0
 23 24  1  0  0  0  0
 23 28  1  0  0  0  0
 24 25  1  6  0  0  0
 24 26  1  0  0  0  0
 26 27  1  0  0  0  0
 26 32  1  1  0  0  0
 27 28  1  0  0  0  0
 27 29  1  1  0  0  0
 29 30  1  0  0  0  0
 31 32  1  6  0  0  0
 31 33  1  0  0  0  0
 31 39  1  0  0  0  0
 33 36  1  0  0  0  0
 33 41  1  6  0  0  0
 34 40  1  0  0  0  0
 35 48  1  0  0  0  0
 36 37  1  0  0  0  0
 36 45  1  1  0  0  0
 37 38  1  0  0  0  0
 37 44  1  6  0  0  0
 38 39  1  0  0  0  0
 38 40  1  6  0  0  0
 43 47  1  0  0  0  0
 46 48  1  0  0  0  0
 48 43  1  6  0  0  0
M  END
>  <CHROM.1>
-154.61469866,87.70388667,152.76275050,74.60473746,-69.52565558,-161.00946510
-58.84564771,-50.16439377,-143.63931046,58.39745832,-148.05205061,54.32385223
-8.22152881,25.60003232,15.02919081,9.13056380,-0.29574719,-1.35126696,1.13662185

>  <Name>
ligand

>  <RI>
0

>  <Rbt.Current_Directory>
/home/itssahil/PROJECTS/Mol_Feturizer/New_Systems/rnas/4PDQ

>  <Rbt.Executable>
rbdock ($Id: //depot/dev/client3/rdock/2013.1/src/exe/rbdock.cxx#4 $)

>  <Rbt.Library>
libRbt.so (2013.1, Build901 2013/11/27)

>  <Rbt.Parameter_File>
/export/apps/rDock/src/rDock_2013.1_src/data/scripts/dock_solv.prm

>  <Rbt.Receptor>
prm/blind_docking_40.prm

>  <SCORE>
18.4944

>  <SCORE.INTER>
9.49513

>  <SCORE.INTER.CONST>
1

>  <SCORE.INTER.POLAR>
0

>  <SCORE.INTER.ROT>
13

>  <SCORE.INTER.SOLV>
31.6622

>  <SCORE.INTER.VDW>
-16.4906

>  <SCORE.INTER.norm>
0.193778

>  <SCORE.INTRA>
7.48229

>  <SCORE.INTRA.DIHEDRAL>
-14.8994

>  <SCORE.INTRA.DIHEDRAL.0>
34.5115

>  <SCORE.INTRA.POLAR>
0

>  <SCORE.INTRA.POLAR.0>
0

>  <SCORE.INTRA.REPUL>
0.395616

>  <SCORE.INTRA.REPUL.0>
0

>  <SCORE.INTRA.SOLV>
8.89435

>  <SCORE.INTRA.SOLV.lig_0>
-122.812

>  <SCORE.INTRA.VDW>
8.50672

>  <SCORE.INTRA.VDW.0>
-7.46208

>  <SCORE.INTRA.norm>
0.1527

>  <SCORE.RESTR>
1.51695

>  <SCORE.RESTR.CAVITY>
1.51695

>  <SCORE.RESTR.norm>
0.0309582

>  <SCORE.SYSTEM>
0

>  <SCORE.SYSTEM.CONST>
0

>  <SCORE.SYSTEM.DIHEDRAL>
0

>  <SCORE.SYSTEM.SOLV>
0

>  <SCORE.SYSTEM.norm>
0

>  <SCORE.heavy>
49

>  <SCORE.norm>
0.377436

>  <RMSD>
11.338

$$$$
ligand
 OpenBabel11021811513D
libRbt.so/2013.1/901 2013/11/27
 49 52  0  0  0  0  0  0  0  0999 V2000
   28.5486    5.2866    9.3768 C   0  0  2  0  0  0  0  0  0  0  0  0
   27.4046    5.9416    9.8395 O   0  0  0  0  0  0  0  0  0  0  0  0
   28.2125    3.7784    9.0778 C   0  0  2  0  0  0  0  0  0  0  0  0
   27.1059    3.7111    8.0370 N   0  0  0  0  0  0  0  0  0  0  0  0
   22.8672   10.7326    9.3615 O   0  0  0  0  0  0  0  0  0  0  0  0
   27.8077    3.0483   10.3798 C   0  0  2  0  0  0  0  0  0  0  0  0
   24.5113   15.7300   10.9176 N   0  0  0  0  0  0  0  0  0  0  0  0
   28.9326    3.1470   11.4221 C   0  0  2  0  0  0  0  0  0  0  0  0
   29.3012    4.6560   11.7486 C   0  0  2  0  0  0  0  0  0  0  0  0
   29.6418    5.3498   10.4284 O   0  0  0  0  0  0  0  0  0  0  0  0
   30.4781    4.7478   12.7626 C   0  0  0  0  0  0  0  0  0  0  0  0
   30.2590    4.0226   13.9626 N   0  0  0  0  0  0  0  0  0  0  0  0
   25.6391    9.8539    9.2229 C   0  0  2  0  0  0  0  0  0  0  0  0
   25.2411   11.2662    9.4951 N   0  0  0  0  0  0  0  0  0  0  0  0
   25.3047    9.0086   10.5459 C   0  0  0  0  0  0  0  0  0  0  0  0
   25.6731    7.4925   10.3361 C   0  0  2  0  0  0  0  0  0  0  0  0
   25.3900    6.7109   11.5489 N   0  0  0  0  0  0  0  0  0  0  0  0
   27.1724    7.3479   10.0075 C   0  0  2  0  0  0  0  0  0  0  0  0
   27.5371    8.1741    8.7085 C   0  0  2  0  0  0  0  0  0  0  0  0
   28.9801    7.9655    8.4768 O   0  0  0  0  0  0  0  0  0  0  0  0
   27.2117    9.7315    8.9728 C   0  0  1  0  0  0  0  0  0  0  0  0
   27.5463   10.4418    7.8225 O   0  0  0  0  0  0  0  0  0  0  0  0
   29.6716    8.3754    7.4685 C   0  0  1  0  0  0  0  0  0  0  0  0
   31.1344    7.8472    7.3935 C   0  0  2  0  0  0  0  0  0  0  0  0
   31.9568    8.7542    8.0574 O   0  0  0  0  0  0  0  0  0  0  0  0
   31.3174    7.9153    5.9340 C   0  0  1  0  0  0  0  0  0  0  0  0
   29.9848    7.4705    5.2559 C   0  0  2  0  0  0  0  0  0  0  0  0
   29.0899    8.0725    6.1587 O   0  0  0  0  0  0  0  0  0  0  0  0
   29.7914    5.9851    4.9472 C   0  0  0  0  0  0  0  0  0  0  0  0
   28.4859    5.8575    4.4160 O   0  0  0  0  0  0  0  0  0  0  0  0
   32.0822    9.6223    4.3452 C   0  0  2  0  0  0  0  0  0  0  0  0
   31.6833    9.3340    5.6185 O   0  0  0  0  0  0  0  0  0  0  0  0
   32.4793   11.0609    4.1905 C   0  0  1  0  0  0  0  0  0  0  0  0
   29.8122    7.7228    0.8932 N   0  0  0  0  0  0  0  0  0  0  0  0
   22.1419   13.4483    9.5687 O   0  0  0  0  0  0  0  0  0  0  0  0
   32.8783   11.3349    2.6886 C   0  0  2  0  0  0  0  0  0  0  0  0
   31.7465   10.9820    1.6622 C   0  0  1  0  0  0  0  0  0  0  0  0
   31.3887    9.5923    1.8235 C   0  0  1  0  0  0  0  0  0  0  0  0
   31.0008    9.3022    3.2610 O   0  0  0  0  0  0  0  0  0  0  0  0
   30.2095    9.2003    0.8290 C   0  0  0  0  0  0  0  0  0  0  0  0
   31.3934   11.8990    4.5141 N   0  0  0  0  0  0  0  0  0  0  0  0
   27.6087    1.9479   10.1438 O   0  0  0  0  0  0  0  0  0  0  0  0
   23.7748   13.2977   11.1406 C   0  0  0  0  0  0  0  0  0  0  0  0
   30.8299   11.6316    1.8975 O   0  0  0  0  0  0  0  0  0  0  0  0
   33.7793   10.6681    2.4300 O   0  0  0  0  0  0  0  0  0  0  0  0
   23.7716   11.5627    9.5311 C   0  0  0  0  0  0  0  0  0  0  0  0
   23.7355   14.6479   11.4076 C   0  0  0  0  0  0  0  0  0  0  0  0
   23.5022   13.1242    9.8479 C   0  0  1  0  0  0  0  0  0  0  0  0
   30.0890    2.5079   10.9408 F   0  0  0  0  0  0  0  0  0  0  0  0
  1  2  1  1  0  0  0
  1 10  1  0  0  0  0
  1  3  1  0  0  0  0
  3  4  1  6  0  0  0
  3  6  1  0  0  0  0
  5 46  2  0  0  0  0
  6 42  1  6  0  0  0
  6  8  1  0  0  0  0
  7 47  1  0  0  0  0
  8  9  1  0  0  0  0
  8 49  1  6  0  0  0
  9 10  1  0  0  0  0
  9 11  1  1  0  0  0
 11 12  1  0  0  0  0
 13 14  1  1  0  0  0
 13 15  1  0  0  0  0
 13 21  1  0  0  0  0
 14 46  1  0  0  0  0
 15 16  1  0  0  0  0
 16 17  1  1  0  0  0
 16 18  1  0  0  0  0
 18  2  1  6  0  0  0
 18 19  1  0  0  0  0
 19 20  1  1  0  0  0
 19 21  1  0  0  0  0
 21 22  1  6  0  0  0
 23 20  1  1  0  0  0
 23 24  1  0  0  0  0
 23 28  1  0  0  0  0
 24 25  1  1  0  0  0
 24 26  1  0  0  0  0
 26 27  1  0  0  0  0
 26 32  1  1  0  0  0
 27 28  1  0  0  0  0
 27 29  1  1  0  0  0
 29 30  1  0  0  0  0
 31 32  1  1  0  0  0
 31 33  1  0  0  0  0
 31 39  1  0  0  0  0
 33 36  1  0  0  0  0
 33 41  1  6  0  0  0
 34 40  1  0  0  0  0
 35 48  1  0  0  0  0
 36 37  1  0  0  0  0
 36 45  1  6  0  0  0
 37 38  1  0  0  0  0
 37 44  1  1  0  0  0
 38 39  1  0  0  0  0
 38 40  1  6  0  0  0
 43 47  1  0  0  0  0
 46 48  1  0  0  0  0
 48 43  1  1  0  0  0
M  END
>  <CHROM.1>
-167.74712070,171.42225442,-54.41179412,-72.79282163,174.39532602,-172.11402562
171.41684266,176.67462817,-177.24569989,177.40498820,-62.28706473,-68.73460254
-14.54341546,28.51091638,8.35998252,7.72492813,-2.44550514,0.78516935,-0.62157976

>  <Name>
ligand

>  <RI>
0

>  <Rbt.Current_Directory>
/home/itssahil/PROJECTS/Mol_Feturizer/New_Systems/rnas/4PDQ

>  <Rbt.Executable>
rbdock ($Id: //depot/dev/client3/rdock/2013.1/src/exe/rbdock.cxx#4 $)

>  <Rbt.Library>
libRbt.so (2013.1, Build901 2013/11/27)

>  <Rbt.Parameter_File>
/export/apps/rDock/src/rDock_2013.1_src/data/scripts/dock_solv.prm

>  <Rbt.Receptor>
prm/pocket_docking_8.prm

>  <SCORE>
-18.6729

>  <SCORE.INTER>
-4.01417

>  <SCORE.INTER.CONST>
1

>  <SCORE.INTER.POLAR>
0

>  <SCORE.INTER.ROT>
13

>  <SCORE.INTER.SOLV>
14.3825

>  <SCORE.INTER.VDW>
-19.7369

>  <SCORE.INTER.norm>
-0.0819218

>  <SCORE.INTRA>
-14.6588

>  <SCORE.INTRA.DIHEDRAL>
-30.8752

>  <SCORE.INTRA.DIHEDRAL.0>
34.5115

>  <SCORE.INTRA.POLAR>
0

>  <SCORE.INTRA.POLAR.0>
0

>  <SCORE.INTRA.REPUL>
0

>  <SCORE.INTRA.REPUL.0>
0

>  <SCORE.INTRA.SOLV>
-3.90643

>  <SCORE.INTRA.SOLV.lig_0>
-122.812

>  <SCORE.INTRA.VDW>
2.73204

>  <SCORE.INTRA.VDW.0>
-7.46208

>  <SCORE.INTRA.norm>
-0.299158

>  <SCORE.RESTR>
0

>  <SCORE.RESTR.CAVITY>
0

>  <SCORE.RESTR.norm>
0

>  <SCORE.SYSTEM>
0

>  <SCORE.SYSTEM.CONST>
0

>  <SCORE.SYSTEM.DIHEDRAL>
0

>  <SCORE.SYSTEM.SOLV>
0

>  <SCORE.SYSTEM.norm>
0

>  <SCORE.heavy>
49

>  <SCORE.norm>
-0.38108

>  <RMSD>
11.339

$$$$
ligand
 OpenBabel11021811513D
libRbt.so/2013.1/901 2013/11/27
 49 52  0  0  0  0  0  0  0  0999 V2000
   24.6742   16.1696   11.5636 C   0  0  2  0  0  0  0  0  0  0  0  0
   25.1185   15.3634   10.5126 O   0  0  0  0  0  0  0  0  0  0  0  0
   24.2143   17.5667   11.0031 C   0  0  2  0  0  0  0  0  0  0  0  0
   23.1003   17.3550    9.9900 N   0  0  0  0  0  0  0  0  0  0  0  0
   25.9836    9.7243   14.3981 O   0  0  0  0  0  0  0  0  0  0  0  0
   25.4127   18.3164   10.3758 C   0  0  2  0  0  0  0  0  0  0  0  0
   28.4635    7.5252   14.3912 N   0  0  0  0  0  0  0  0  0  0  0  0
   26.5324   18.5005   11.4121 C   0  0  2  0  0  0  0  0  0  0  0  0
   27.0219   17.1106   12.0023 C   0  0  2  0  0  0  0  0  0  0  0  0
   25.7977   16.3837   12.5619 O   0  0  0  0  0  0  0  0  0  0  0  0
   28.1163   17.3083   13.0908 C   0  0  0  0  0  0  0  0  0  0  0  0
   27.6616   18.0038   14.2413 N   0  0  0  0  0  0  0  0  0  0  0  0
   25.5271   11.3109   12.0005 C   0  0  2  0  0  0  0  0  0  0  0  0
   25.5889    9.8199   11.9954 N   0  0  0  0  0  0  0  0  0  0  0  0
   24.2521   11.7309   11.1204 C   0  0  0  0  0  0  0  0  0  0  0  0
   24.0965   13.2972   11.0925 C   0  0  2  0  0  0  0  0  0  0  0  0
   22.9430   13.6956   10.2723 N   0  0  0  0  0  0  0  0  0  0  0  0
   25.3604   13.9488   10.4970 C   0  0  2  0  0  0  0  0  0  0  0  0
   26.6386   13.5509   11.3401 C   0  0  2  0  0  0  0  0  0  0  0  0
   27.7843   14.2255   10.6985 O   0  0  0  0  0  0  0  0  0  0  0  0
   26.8123   11.9479   11.2983 C   0  0  1  0  0  0  0  0  0  0  0  0
   27.9454   11.6190   12.0383 O   0  0  0  0  0  0  0  0  0  0  0  0
   27.9893   14.3734    9.4340 C   0  0  1  0  0  0  0  0  0  0  0  0
   29.4631   14.1968    8.9637 C   0  0  2  0  0  0  0  0  0  0  0  0
   30.0802   15.4450    8.9955 O   0  0  0  0  0  0  0  0  0  0  0  0
   29.2012   13.7551    7.5837 C   0  0  1  0  0  0  0  0  0  0  0  0
   27.9651   12.8038    7.6041 C   0  0  2  0  0  0  0  0  0  0  0  0
   27.2061   13.4824    8.5746 O   0  0  0  0  0  0  0  0  0  0  0  0
   28.2074   11.3078    7.8095 C   0  0  0  0  0  0  0  0  0  0  0  0
   28.3373   11.1154    9.2054 O   0  0  0  0  0  0  0  0  0  0  0  0
   27.8552   15.0407    5.9841 C   0  0  2  0  0  0  0  0  0  0  0  0
   28.9641   14.9970    6.7789 O   0  0  0  0  0  0  0  0  0  0  0  0
   26.9046   16.1241    6.4008 C   0  0  1  0  0  0  0  0  0  0  0  0
   25.9907   11.1258    4.5052 N   0  0  0  0  0  0  0  0  0  0  0  0
   24.6555    7.0948   12.5291 O   0  0  0  0  0  0  0  0  0  0  0  0
   25.6272   16.0839    5.4752 C   0  0  2  0  0  0  0  0  0  0  0  0
   24.8907   14.6996    5.4785 C   0  0  1  0  0  0  0  0  0  0  0  0
   25.8218   13.6760    5.0652 C   0  0  1  0  0  0  0  0  0  0  0  0
   27.0607   13.6937    5.9404 O   0  0  0  0  0  0  0  0  0  0  0  0
   25.1276   12.2442    5.0961 C   0  0  0  0  0  0  0  0  0  0  0  0
   26.4873   15.9149    7.7307 N   0  0  0  0  0  0  0  0  0  0  0  0
   25.0625   19.3423   10.0136 O   0  0  0  0  0  0  0  0  0  0  0  0
   26.9163    7.2580   12.3804 C   0  0  0  0  0  0  0  0  0  0  0  0
   24.5448   14.4768    6.5500 O   0  0  0  0  0  0  0  0  0  0  0  0
   25.9635   16.2774    4.3923 O   0  0  0  0  0  0  0  0  0  0  0  0
   25.8356    9.1460   13.3121 C   0  0  0  0  0  0  0  0  0  0  0  0
   28.0483    7.6769   13.0431 C   0  0  0  0  0  0  0  0  0  0  0  0
   25.8623    7.5388   13.1456 C   0  0  1  0  0  0  0  0  0  0  0  0
   26.0719   19.2918   12.4794 F   0  0  0  0  0  0  0  0  0  0  0  0
  1  2  1  6  0  0  0
  1 10  1  0  0  0  0
  1  3  1  0  0  0  0
  3  4  1  6  0  0  0
  3  6  1  0  0  0  0
  5 46  2  0  0  0  0
  6 42  1  1  0  0  0
  6  8  1  0  0  0  0
  7 47  1  0  0  0  0
  8  9  1  0  0  0  0
  8 49  1  1  0  0  0
  9 10  1  0  0  0  0
  9 11  1  1  0  0  0
 11 12  1  0  0  0  0
 13 14  1  6  0  0  0
 13 15  1  0  0  0  0
 13 21  1  0  0  0  0
 14 46  1  0  0  0  0
 15 16  1  0  0  0  0
 16 17  1  6  0  0  0
 16 18  1  0  0  0  0
 18  2  1  1  0  0  0
 18 19  1  0  0  0  0
 19 20  1  6  0  0  0
 19 21  1  0  0  0  0
 21 22  1  1  0  0  0
 23 20  1  1  0  0  0
 23 24  1  0  0  0  0
 23 28  1  0  0  0  0
 24 25  1  6  0  0  0
 24 26  1  0  0  0  0
 26 27  1  0  0  0  0
 26 32  1  6  0  0  0
 27 28  1  0  0  0  0
 27 29  1  1  0  0  0
 29 30  1  0  0  0  0
 31 32  1  1  0  0  0
 31 33  1  0  0  0  0
 31 39  1  0  0  0  0
 33 36  1  0  0  0  0
 33 41  1  1  0  0  0
 34 40  1  0  0  0  0
 35 48  1  0  0  0  0
 36 37  1  0  0  0  0
 36 45  1  6  0  0  0
 37 38  1  0  0  0  0
 37 44  1  1  0  0  0
 38 39  1  0  0  0  0
 38 40  1  1  0  0  0
 43 47  1  0  0  0  0
 46 48  1  0  0  0  0
 48 43  1  6  0  0  0
M  END
>  <CHROM.1>
-165.55110384,49.94592095,63.92693798,-134.46218586,-39.45608133,-140.21703326
-130.29863313,82.58046282,117.13731008,172.74177150,45.46420973,-178.41513328
123.90865204,26.44537184,13.76128863,9.85301620,1.99013303,1.46747826,-0.91358436

>  <Name>
ligand

>  <RI>
0

>  <Rbt.Current_Directory>
/home/itssahil/PROJECTS/Mol_Feturizer/New_Systems/rnas/4PDQ

>  <Rbt.Executable>
rbdock ($Id: //depot/dev/client3/rdock/2013.1/src/exe/rbdock.cxx#4 $)

>  <Rbt.Library>
libRbt.so (2013.1, Build901 2013/11/27)

>  <Rbt.Parameter_File>
/export/apps/rDock/src/rDock_2013.1_src/data/scripts/dock_solv.prm

>  <Rbt.Receptor>
prm/blind_docking_60.prm

>  <SCORE>
62.9261

>  <SCORE.INTER>
34.8445

>  <SCORE.INTER.CONST>
1

>  <SCORE.INTER.POLAR>
0

>  <SCORE.INTER.ROT>
13

>  <SCORE.INTER.SOLV>
28.1912

>  <SCORE.INTER.VDW>
1.56597

>  <SCORE.INTER.norm>
0.711113

>  <SCORE.INTRA>
24.4497

>  <SCORE.INTRA.DIHEDRAL>
-7.45935

>  <SCORE.INTRA.DIHEDRAL.0>
34.5115

>  <SCORE.INTRA.POLAR>
0

>  <SCORE.INTRA.POLAR.0>
0

>  <SCORE.INTRA.REPUL>
1.13281

>  <SCORE.INTRA.REPUL.0>
0

>  <SCORE.INTRA.SOLV>
8.97441

>  <SCORE.INTRA.SOLV.lig_0>
-122.812

>  <SCORE.INTRA.VDW>
18.0281

>  <SCORE.INTRA.VDW.0>
-7.46208

>  <SCORE.INTRA.norm>
0.498974

>  <SCORE.RESTR>
3.63183

>  <SCORE.RESTR.CAVITY>
3.63183

>  <SCORE.RESTR.norm>
0.0741189

>  <SCORE.SYSTEM>
0

>  <SCORE.SYSTEM.CONST>
0

>  <SCORE.SYSTEM.DIHEDRAL>
0

>  <SCORE.SYSTEM.SOLV>
0

>  <SCORE.SYSTEM.norm>
0

>  <SCORE.heavy>
49

>  <SCORE.norm>
1.28421

>  <RMSD>
11.369

$$$$
ligand
 OpenBabel11021811513D
libRbt.so/2013.1/901 2013/11/27
 49 52  0  0  0  0  0  0  0  0999 V2000
   23.2367   17.5083   10.8127 C   0  0  2  0  0  0  0  0  0  0  0  0
   23.4883   16.3381   10.0921 O   0  0  0  0  0  0  0  0  0  0  0  0
   23.4706   18.7611    9.8891 C   0  0  2  0  0  0  0  0  0  0  0  0
   22.5470   18.6717    8.6844 N   0  0  0  0  0  0  0  0  0  0  0  0
   24.8856   12.0996   14.7260 O   0  0  0  0  0  0  0  0  0  0  0  0
   24.9537   18.8434    9.4584 C   0  0  2  0  0  0  0  0  0  0  0  0
   30.2010    9.4838   14.9660 N   0  0  0  0  0  0  0  0  0  0  0  0
   25.8676   18.9128   10.6918 C   0  0  2  0  0  0  0  0  0  0  0  0
   25.6583   17.6646   11.6498 C   0  0  2  0  0  0  0  0  0  0  0  0
   24.1722   17.5926   12.0054 O   0  0  0  0  0  0  0  0  0  0  0  0
   26.5463   17.7695   12.9235 C   0  0  0  0  0  0  0  0  0  0  0  0
   27.9181   18.0065   12.6482 N   0  0  0  0  0  0  0  0  0  0  0  0
   25.9293   13.7352   12.5557 C   0  0  2  0  0  0  0  0  0  0  0  0
   26.5991   12.4921   13.0384 N   0  0  0  0  0  0  0  0  0  0  0  0
   24.4075   13.3491   12.2219 C   0  0  0  0  0  0  0  0  0  0  0  0
   23.6160   14.6163   11.7259 C   0  0  2  0  0  0  0  0  0  0  0  0
   22.2250   14.2712   11.3975 N   0  0  0  0  0  0  0  0  0  0  0  0
   24.2799   15.1997   10.4626 C   0  0  2  0  0  0  0  0  0  0  0  0
   25.7852   15.5875   10.7566 C   0  0  2  0  0  0  0  0  0  0  0  0
   26.3242   16.1386    9.4975 O   0  0  0  0  0  0  0  0  0  0  0  0
   26.5884   14.2608   11.1992 C   0  0  1  0  0  0  0  0  0  0  0  0
   27.9110   14.6211   11.4455 O   0  0  0  0  0  0  0  0  0  0  0  0
   26.4378   15.5267    8.3681 C   0  0  1  0  0  0  0  0  0  0  0  0
   26.9162   16.4008    7.1716 C   0  0  2  0  0  0  0  0  0  0  0  0
   25.7901   16.9198    6.5372 O   0  0  0  0  0  0  0  0  0  0  0  0
   27.5532   15.3435    6.3688 C   0  0  1  0  0  0  0  0  0  0  0  0
   28.2878   14.3704    7.3419 C   0  0  2  0  0  0  0  0  0  0  0  0
   27.3396   14.3725    8.3809 O   0  0  0  0  0  0  0  0  0  0  0  0
   29.7420   14.6731    7.7060 C   0  0  0  0  0  0  0  0  0  0  0  0
   29.6981   15.5723    8.7978 O   0  0  0  0  0  0  0  0  0  0  0  0
   26.2017   13.3589    5.8609 C   0  0  2  0  0  0  0  0  0  0  0  0
   26.4542   14.6748    5.6000 O   0  0  0  0  0  0  0  0  0  0  0  0
   24.9869   12.8625    5.1335 C   0  0  1  0  0  0  0  0  0  0  0  0
   26.9082   11.5833   10.0782 N   0  0  0  0  0  0  0  0  0  0  0  0
   26.3471    9.3346   13.7676 O   0  0  0  0  0  0  0  0  0  0  0  0
   24.7255   11.3550    5.5197 C   0  0  2  0  0  0  0  0  0  0  0  0
   24.5558   11.1204    7.0608 C   0  0  1  0  0  0  0  0  0  0  0  0
   25.7396   11.5964    7.7373 C   0  0  1  0  0  0  0  0  0  0  0  0
   26.0135   13.0454    7.3819 O   0  0  0  0  0  0  0  0  0  0  0  0
   25.5927   11.4179    9.3120 C   0  0  0  0  0  0  0  0  0  0  0  0
   23.8563   13.6134    5.5134 N   0  0  0  0  0  0  0  0  0  0  0  0
   25.1061   19.7816    8.8237 O   0  0  0  0  0  0  0  0  0  0  0  0
   28.0562   10.7162   14.3419 C   0  0  0  0  0  0  0  0  0  0  0  0
   23.6516   11.7286    7.4216 O   0  0  0  0  0  0  0  0  0  0  0  0
   25.6379   10.7373    5.1894 O   0  0  0  0  0  0  0  0  0  0  0  0
   25.9396   11.7606   14.1692 C   0  0  0  0  0  0  0  0  0  0  0  0
   28.8076    9.6355   14.7464 C   0  0  0  0  0  0  0  0  0  0  0  0
   26.7735   10.4351   14.5679 C   0  0  1  0  0  0  0  0  0  0  0  0
   25.5927   20.0798   11.4266 F   0  0  0  0  0  0  0  0  0  0  0  0
  1  2  1  6  0  0  0
  1 10  1  0  0  0  0
  1  3  1  0  0  0  0
  3  4  1  6  0  0  0
  3  6  1  0  0  0  0
  5 46  2  0  0  0  0
  6 42  1  6  0  0  0
  6  8  1  0  0  0  0
  7 47  1  0  0  0  0
  8  9  1  0  0  0  0
  8 49  1  1  0  0  0
  9 10  1  0  0  0  0
  9 11  1  1  0  0  0
 11 12  1  0  0  0  0
 13 14  1  6  0  0  0
 13 15  1  0  0  0  0
 13 21  1  0  0  0  0
 14 46  1  0  0  0  0
 15 16  1  0  0  0  0
 16 17  1  6  0  0  0
 16 18  1  0  0  0  0
 18  2  1  1  0  0  0
 18 19  1  0  0  0  0
 19 20  1  6  0  0  0
 19 21  1  0  0  0  0
 21 22  1  1  0  0  0
 23 20  1  1  0  0  0
 23 24  1  0  0  0  0
 23 28  1  0  0  0  0
 24 25  1  6  0  0  0
 24 26  1  0  0  0  0
 26 27  1  0  0  0  0
 26 32  1  1  0  0  0
 27 28  1  0  0  0  0
 27 29  1  1  0  0  0
 29 30  1  0  0  0  0
 31 32  1  1  0  0  0
 31 33  1  0  0  0  0
 31 39  1  0  0  0  0
 33 36  1  0  0  0  0
 33 41  1  1  0  0  0
 34 40  1  0  0  0  0
 35 48  1  0  0  0  0
 36 37  1  0  0  0  0
 36 45  1  1  0  0  0
 37 38  1  0  0  0  0
 37 44  1  1  0  0  0
 38 39  1  0  0  0  0
 38 40  1  1  0  0  0
 43 47  1  0  0  0  0
 46 48  1  0  0  0  0
 48 43  1  6  0  0  0
M  END
>  <CHROM.1>
131.92596503,61.49934222,-52.04757944,-53.26203997,-61.64245063,174.34438486
-116.30300669,85.79207069,173.76399691,166.34980288,-166.60528219,-64.12331866
91.53318321,25.91211521,14.48539880,9.93449497,2.93237004,1.33305222,-2.03675538

>  <Name>
ligand

>  <RI>
0

>  <Rbt.Current_Directory>
/home/itssahil/PROJECTS/Mol_Feturizer/New_Systems/rnas/4PDQ

>  <Rbt.Executable>
rbdock ($Id: //depot/dev/client3/rdock/2013.1/src/exe/rbdock.cxx#4 $)

>  <Rbt.Library>
libRbt.so (2013.1, Build901 2013/11/27)

>  <Rbt.Parameter_File>
/export/apps/rDock/src/rDock_2013.1_src/data/scripts/dock_solv.prm

>  <Rbt.Receptor>
prm/blind_docking_60.prm

>  <SCORE>
28.6058

>  <SCORE.INTER>
4.37958

>  <SCORE.INTER.CONST>
1

>  <SCORE.INTER.POLAR>
0

>  <SCORE.INTER.ROT>
13

>  <SCORE.INTER.SOLV>
36.5939

>  <SCORE.INTER.VDW>
-21.5449

>  <SCORE.INTER.norm>
0.0893791

>  <SCORE.INTRA>
19.7923

>  <SCORE.INTRA.DIHEDRAL>
-15.1923

>  <SCORE.INTRA.DIHEDRAL.0>
34.5115

>  <SCORE.INTRA.POLAR>
0

>  <SCORE.INTRA.POLAR.0>
0

>  <SCORE.INTRA.REPUL>
0

>  <SCORE.INTRA.REPUL.0>
0

>  <SCORE.INTRA.SOLV>
6.51818

>  <SCORE.INTRA.SOLV.lig_0>
-122.812

>  <SCORE.INTRA.VDW>
24.1294

>  <SCORE.INTRA.VDW.0>
-7.46208

>  <SCORE.INTRA.norm>
0.403925

>  <SCORE.RESTR>
4.43389

>  <SCORE.RESTR.CAVITY>
4.43389

>  <SCORE.RESTR.norm>
0.0904875

>  <SCORE.SYSTEM>
0

>  <SCORE.SYSTEM.CONST>
0

>  <SCORE.SYSTEM.DIHEDRAL>
0

>  <SCORE.SYSTEM.SOLV>
0

>  <SCORE.SYSTEM.norm>
0

>  <SCORE.heavy>
49

>  <SCORE.norm>
0.583792

>  <RMSD>
11.373

$$$$
ligand
 OpenBabel11021811513D
libRbt.so/2013.1/901 2013/11/27
 49 52  0  0  0  0  0  0  0  0999 V2000
   27.8987    5.9384   12.3468 C   0  0  2  0  0  0  0  0  0  0  0  0
   28.5565    7.0687   11.8553 O   0  0  0  0  0  0  0  0  0  0  0  0
   28.9013    5.0650   13.1890 C   0  0  2  0  0  0  0  0  0  0  0  0
   29.4482    5.9005   14.3358 N   0  0  0  0  0  0  0  0  0  0  0  0
   22.8707   10.2334    9.6089 O   0  0  0  0  0  0  0  0  0  0  0  0
   30.0387    4.5307   12.2876 C   0  0  2  0  0  0  0  0  0  0  0  0
   22.9444   15.9526   10.7273 N   0  0  0  0  0  0  0  0  0  0  0  0
   29.4607    3.7071   11.1260 C   0  0  2  0  0  0  0  0  0  0  0  0
   28.4418    4.5556   10.2534 C   0  0  2  0  0  0  0  0  0  0  0  0
   27.3678    5.1064   11.1933 O   0  0  0  0  0  0  0  0  0  0  0  0
   27.8187    3.6994    9.1131 C   0  0  0  0  0  0  0  0  0  0  0  0
   26.8694    4.3992    8.3237 N   0  0  0  0  0  0  0  0  0  0  0  0
   25.5848    9.9794   10.6305 C   0  0  2  0  0  0  0  0  0  0  0  0
   25.0049   11.2718   10.1610 N   0  0  0  0  0  0  0  0  0  0  0  0
   26.6420   10.3314   11.7859 C   0  0  0  0  0  0  0  0  0  0  0  0
   27.2877    9.0148   12.3584 C   0  0  2  0  0  0  0  0  0  0  0  0
   28.2734    9.3254   13.4043 N   0  0  0  0  0  0  0  0  0  0  0  0
   28.0040    8.2391   11.2350 C   0  0  2  0  0  0  0  0  0  0  0  0
   26.9891    7.8796   10.0759 C   0  0  2  0  0  0  0  0  0  0  0  0
   27.7646    7.1382    9.0618 O   0  0  0  0  0  0  0  0  0  0  0  0
   26.3919    9.2469    9.4632 C   0  0  1  0  0  0  0  0  0  0  0  0
   25.5082    8.9098    8.4409 O   0  0  0  0  0  0  0  0  0  0  0  0
   28.5289    7.6375    8.1511 C   0  0  1  0  0  0  0  0  0  0  0  0
   29.4470    6.6223    7.4088 C   0  0  2  0  0  0  0  0  0  0  0  0
   30.6590    6.5550    8.0917 O   0  0  0  0  0  0  0  0  0  0  0  0
   29.5821    7.3423    6.1316 C   0  0  1  0  0  0  0  0  0  0  0  0
   28.2030    7.9851    5.7877 C   0  0  2  0  0  0  0  0  0  0  0  0
   27.8285    8.3642    7.0895 O   0  0  0  0  0  0  0  0  0  0  0  0
   27.2048    7.1619    4.9722 C   0  0  0  0  0  0  0  0  0  0  0  0
   27.8627    6.8232    3.7659 O   0  0  0  0  0  0  0  0  0  0  0  0
   31.1057    9.0456    5.2367 C   0  0  2  0  0  0  0  0  0  0  0  0
   30.6630    8.3610    6.3316 O   0  0  0  0  0  0  0  0  0  0  0  0
   32.0734   10.1319    5.6037 C   0  0  1  0  0  0  0  0  0  0  0  0
   29.4196   11.4690    0.9446 N   0  0  0  0  0  0  0  0  0  0  0  0
   21.8469   12.6206    8.5364 O   0  0  0  0  0  0  0  0  0  0  0  0
   32.5028   10.9121    4.3010 C   0  0  2  0  0  0  0  0  0  0  0  0
   31.2964   11.5207    3.5054 C   0  0  1  0  0  0  0  0  0  0  0  0
   30.3852   10.4563    3.1554 C   0  0  1  0  0  0  0  0  0  0  0  0
   29.9570    9.6894    4.3922 O   0  0  0  0  0  0  0  0  0  0  0  0
   29.1203   11.0357    2.3826 C   0  0  0  0  0  0  0  0  0  0  0  0
   31.4598   11.0491    6.4802 N   0  0  0  0  0  0  0  0  0  0  0  0
   30.7292    3.8677   12.9121 O   0  0  0  0  0  0  0  0  0  0  0  0
   23.0032   13.4358   10.3136 C   0  0  0  0  0  0  0  0  0  0  0  0
   30.7525   12.2661    4.1880 O   0  0  0  0  0  0  0  0  0  0  0  0
   33.0244   10.1693    3.5943 O   0  0  0  0  0  0  0  0  0  0  0  0
   23.5925   11.2395    9.6582 C   0  0  0  0  0  0  0  0  0  0  0  0
   22.9373   14.7633    9.9537 C   0  0  0  0  0  0  0  0  0  0  0  0
   23.1056   12.7108    9.2004 C   0  0  1  0  0  0  0  0  0  0  0  0
   28.7786    2.5845   11.6276 F   0  0  0  0  0  0  0  0  0  0  0  0
  1  2  1  6  0  0  0
  1 10  1  0  0  0  0
  1  3  1  0  0  0  0
  3  4  1  1  0  0  0
  3  6  1  0  0  0  0
  5 46  2  0  0  0  0
  6 42  1  1  0  0  0
  6  8  1  0  0  0  0
  7 47  1  0  0  0  0
  8  9  1  0  0  0  0
  8 49  1  1  0  0  0
  9 10  1  0  0  0  0
  9 11  1  6  0  0  0
 11 12  1  0  0  0  0
 13 14  1  6  0  0  0
 13 15  1  0  0  0  0
 13 21  1  0  0  0  0
 14 46  1  0  0  0  0
 15 16  1  0  0  0  0
 16 17  1  1  0  0  0
 16 18  1  0  0  0  0
 18  2  1  1  0  0  0
 18 19  1  0  0  0  0
 19 20  1  6  0  0  0
 19 21  1  0  0  0  0
 21 22  1  6  0  0  0
 23 20  1  1  0  0  0
 23 24  1  0  0  0  0
 23 28  1  0  0  0  0
 24 25  1  1  0  0  0
 24 26  1  0  0  0  0
 26 27  1  0  0  0  0
 26 32  1  1  0  0  0
 27 28  1  0  0  0  0
 27 29  1  1  0  0  0
 29 30  1  0  0  0  0
 31 32  1  1  0  0  0
 31 33  1  0  0  0  0
 31 39  1  0  0  0  0
 33 36  1  0  0  0  0
 33 41  1  1  0  0  0
 34 40  1  0  0  0  0
 35 48  1  0  0  0  0
 36 37  1  0  0  0  0
 36 45  1  6  0  0  0
 37 38  1  0  0  0  0
 37 44  1  1  0  0  0
 38 39  1  0  0  0  0
 38 40  1  1  0  0  0
 43 47  1  0  0  0  0
 46 48  1  0  0  0  0
 48 43  1  1  0  0  0
M  END
>  <CHROM.1>
-168.62940299,71.16237211,178.28733628,-149.41273618,-81.02076526,167.91550547
171.49629137,-57.53488380,173.69662239,73.31943091,-173.41809760,-76.11854957
-9.95145708,28.02880958,8.59227974,8.45226786,-1.85696228,0.73150473,-0.83424153

>  <Name>
ligand

>  <RI>
0

>  <Rbt.Current_Directory>
/home/itssahil/PROJECTS/Mol_Feturizer/New_Systems/rnas/4PDQ

>  <Rbt.Executable>
rbdock ($Id: //depot/dev/client3/rdock/2013.1/src/exe/rbdock.cxx#4 $)

>  <Rbt.Library>
libRbt.so (2013.1, Build901 2013/11/27)

>  <Rbt.Parameter_File>
/export/apps/rDock/src/rDock_2013.1_src/data/scripts/dock_solv.prm

>  <Rbt.Receptor>
prm/pocket_docking_7.prm

>  <SCORE>
-13.8053

>  <SCORE.INTER>
-1.38897

>  <SCORE.INTER.CONST>
1

>  <SCORE.INTER.POLAR>
0

>  <SCORE.INTER.ROT>
13

>  <SCORE.INTER.SOLV>
21.0886

>  <SCORE.INTER.VDW>
-20.2222

>  <SCORE.INTER.norm>
-0.0283463

>  <SCORE.INTRA>
-12.4163

>  <SCORE.INTRA.DIHEDRAL>
-26.8237

>  <SCORE.INTRA.DIHEDRAL.0>
34.5115

>  <SCORE.INTRA.POLAR>
0

>  <SCORE.INTRA.POLAR.0>
0

>  <SCORE.INTRA.REPUL>
0

>  <SCORE.INTRA.REPUL.0>
0

>  <SCORE.INTRA.SOLV>
0.24018

>  <SCORE.INTRA.SOLV.lig_0>
-122.812

>  <SCORE.INTRA.VDW>
0.875433

>  <SCORE.INTRA.VDW.0>
-7.46208

>  <SCORE.INTRA.norm>
-0.253395

>  <SCORE.RESTR>
0

>  <SCORE.RESTR.CAVITY>
0

>  <SCORE.RESTR.norm>
0

>  <SCORE.SYSTEM>
0

>  <SCORE.SYSTEM.CONST>
0

>  <SCORE.SYSTEM.DIHEDRAL>
0

>  <SCORE.SYSTEM.SOLV>
0

>  <SCORE.SYSTEM.norm>
0

>  <SCORE.heavy>
49

>  <SCORE.norm>
-0.281741

>  <RMSD>
11.384

$$$$
ligand
 OpenBabel11021811513D
libRbt.so/2013.1/901 2013/11/27
 49 52  0  0  0  0  0  0  0  0999 V2000
   26.7899   15.7668   11.9281 C   0  0  2  0  0  0  0  0  0  0  0  0
   25.9094   14.9326   12.6216 O   0  0  0  0  0  0  0  0  0  0  0  0
   27.4723   16.7695   12.9311 C   0  0  2  0  0  0  0  0  0  0  0  0
   28.2179   15.9799   13.9955 N   0  0  0  0  0  0  0  0  0  0  0  0
   28.3876    8.9380   12.2641 O   0  0  0  0  0  0  0  0  0  0  0  0
   26.4142   17.7056   13.5604 C   0  0  2  0  0  0  0  0  0  0  0  0
   28.7782    4.5238   11.4677 N   0  0  0  0  0  0  0  0  0  0  0  0
   25.6613   18.4772   12.4653 C   0  0  2  0  0  0  0  0  0  0  0  0
   24.9602   17.4974   11.4318 C   0  0  2  0  0  0  0  0  0  0  0  0
   26.0329   16.5584   10.8769 O   0  0  0  0  0  0  0  0  0  0  0  0
   24.2467   18.2851   10.2950 C   0  0  0  0  0  0  0  0  0  0  0  0
   25.1173   19.1073    9.5334 N   0  0  0  0  0  0  0  0  0  0  0  0
   26.4358   10.8498   11.2591 C   0  0  2  0  0  0  0  0  0  0  0  0
   26.2531    9.3713   11.1712 N   0  0  0  0  0  0  0  0  0  0  0  0
   26.5773   11.2136   12.8161 C   0  0  0  0  0  0  0  0  0  0  0  0
   26.7993   12.7612   13.0000 C   0  0  2  0  0  0  0  0  0  0  0  0
   26.9103   13.1101   14.4240 N   0  0  0  0  0  0  0  0  0  0  0  0
   25.6144   13.5454   12.4017 C   0  0  2  0  0  0  0  0  0  0  0  0
   25.4442   13.2059   10.8659 C   0  0  2  0  0  0  0  0  0  0  0  0
   24.2986   14.0060   10.3896 O   0  0  0  0  0  0  0  0  0  0  0  0
   25.1531   11.6271   10.7103 C   0  0  1  0  0  0  0  0  0  0  0  0
   24.9988   11.3502    9.3541 O   0  0  0  0  0  0  0  0  0  0  0  0
   24.0958   14.4337    9.1901 C   0  0  1  0  0  0  0  0  0  0  0  0
   23.1870   13.5375    8.2982 C   0  0  2  0  0  0  0  0  0  0  0  0
   24.0024   12.6393    7.6141 O   0  0  0  0  0  0  0  0  0  0  0  0
   22.6592   14.5817    7.4043 C   0  0  1  0  0  0  0  0  0  0  0  0
   22.3922   15.8612    8.2559 C   0  0  2  0  0  0  0  0  0  0  0  0
   23.5104   15.7737    9.1048 O   0  0  0  0  0  0  0  0  0  0  0  0
   21.0173   16.0233    8.9057 C   0  0  0  0  0  0  0  0  0  0  0  0
   20.0721   15.9580    7.8545 O   0  0  0  0  0  0  0  0  0  0  0  0
   24.8581   15.4175    6.7044 C   0  0  2  0  0  0  0  0  0  0  0  0
   23.6969   14.7965    6.3444 O   0  0  0  0  0  0  0  0  0  0  0  0
   25.5843   15.9859    5.5209 C   0  0  1  0  0  0  0  0  0  0  0  0
   28.4323   12.8411    7.8910 N   0  0  0  0  0  0  0  0  0  0  0  0
   25.5895    6.7692   11.4956 O   0  0  0  0  0  0  0  0  0  0  0  0
   26.9368   16.6410    6.0022 C   0  0  2  0  0  0  0  0  0  0  0  0
   27.8747   15.6517    6.7771 C   0  0  1  0  0  0  0  0  0  0  0  0
   27.1580   15.1261    7.9154 C   0  0  1  0  0  0  0  0  0  0  0  0
   25.8518   14.4902    7.4790 O   0  0  0  0  0  0  0  0  0  0  0  0
   28.0590   14.0811    8.7085 C   0  0  0  0  0  0  0  0  0  0  0  0
   25.8968   14.9591    4.6075 N   0  0  0  0  0  0  0  0  0  0  0  0
   26.9385   18.4492   14.2521 O   0  0  0  0  0  0  0  0  0  0  0  0
   27.5936    6.5414   10.4508 C   0  0  0  0  0  0  0  0  0  0  0  0
   28.1444   14.7846    6.0750 O   0  0  0  0  0  0  0  0  0  0  0  0
   26.6821   17.4945    6.7302 O   0  0  0  0  0  0  0  0  0  0  0  0
   27.3511    8.5170   11.7310 C   0  0  0  0  0  0  0  0  0  0  0  0
   28.6804    5.7694   10.7955 C   0  0  0  0  0  0  0  0  0  0  0  0
   27.0022    6.9469   11.5738 C   0  0  1  0  0  0  0  0  0  0  0  0
   26.5566   19.2960   11.7545 F   0  0  0  0  0  0  0  0  0  0  0  0
  1  2  1  1  0  0  0
  1 10  1  0  0  0  0
  1  3  1  0  0  0  0
  3  4  1  1  0  0  0
  3  6  1  0  0  0  0
  5 46  2  0  0  0  0
  6 42  1  1  0  0  0
  6  8  1  0  0  0  0
  7 47  1  0  0  0  0
  8  9  1  0  0  0  0
  8 49  1  6  0  0  0
  9 10  1  0  0  0  0
  9 11  1  6  0  0  0
 11 12  1  0  0  0  0
 13 14  1  1  0  0  0
 13 15  1  0  0  0  0
 13 21  1  0  0  0  0
 14 46  1  0  0  0  0
 15 16  1  0  0  0  0
 16 17  1  1  0  0  0
 16 18  1  0  0  0  0
 18  2  1  6  0  0  0
 18 19  1  0  0  0  0
 19 20  1  1  0  0  0
 19 21  1  0  0  0  0
 21 22  1  6  0  0  0
 23 20  1  1  0  0  0
 23 24  1  0  0  0  0
 23 28  1  0  0  0  0
 24 25  1  6  0  0  0
 24 26  1  0  0  0  0
 26 27  1  0  0  0  0
 26 32  1  6  0  0  0
 27 28  1  0  0  0  0
 27 29  1  1  0  0  0
 29 30  1  0  0  0  0
 31 32  1  6  0  0  0
 31 33  1  0  0  0  0
 31 39  1  0  0  0  0
 33 36  1  0  0  0  0
 33 41  1  6  0  0  0
 34 40  1  0  0  0  0
 35 48  1  0  0  0  0
 36 37  1  0  0  0  0
 36 45  1  1  0  0  0
 37 38  1  0  0  0  0
 37 44  1  6  0  0  0
 38 39  1  0  0  0  0
 38 40  1  6  0  0  0
 43 47  1  0  0  0  0
 46 48  1  0  0  0  0
 48 43  1  6  0  0  0
M  END
>  <CHROM.1>
-143.83969589,77.54268577,59.91075018,-59.71579662,152.50435345,95.16375612
-71.09695281,-56.94866691,-160.35685057,-63.02296221,64.30873584,-133.84500914
154.34561153,25.82783415,13.89679678,9.97259347,-2.27893041,1.19590983,-2.70193398

>  <Name>
ligand

>  <RI>
0

>  <Rbt.Current_Directory>
/home/itssahil/PROJECTS/Mol_Feturizer/New_Systems/rnas/4PDQ

>  <Rbt.Executable>
rbdock ($Id: //depot/dev/client3/rdock/2013.1/src/exe/rbdock.cxx#4 $)

>  <Rbt.Library>
libRbt.so (2013.1, Build901 2013/11/27)

>  <Rbt.Parameter_File>
/export/apps/rDock/src/rDock_2013.1_src/data/scripts/dock_solv.prm

>  <Rbt.Receptor>
prm/blind_docking_100.prm

>  <SCORE>
-0.813766

>  <SCORE.INTER>
-4.74861

>  <SCORE.INTER.CONST>
1

>  <SCORE.INTER.POLAR>
0

>  <SCORE.INTER.ROT>
13

>  <SCORE.INTER.SOLV>
30.8059

>  <SCORE.INTER.VDW>
-25.7011

>  <SCORE.INTER.norm>
-0.0969104

>  <SCORE.INTRA>
1.78177

>  <SCORE.INTRA.DIHEDRAL>
-11.8397

>  <SCORE.INTRA.DIHEDRAL.0>
34.5115

>  <SCORE.INTRA.POLAR>
0

>  <SCORE.INTRA.POLAR.0>
0

>  <SCORE.INTRA.REPUL>
0

>  <SCORE.INTRA.REPUL.0>
0

>  <SCORE.INTRA.SOLV>
5.60926

>  <SCORE.INTRA.SOLV.lig_0>
-122.812

>  <SCORE.INTRA.VDW>
4.897

>  <SCORE.INTRA.VDW.0>
-7.46208

>  <SCORE.INTRA.norm>
0.0363627

>  <SCORE.RESTR>
2.15307

>  <SCORE.RESTR.CAVITY>
2.15307

>  <SCORE.RESTR.norm>
0.0439402

>  <SCORE.SYSTEM>
0

>  <SCORE.SYSTEM.CONST>
0

>  <SCORE.SYSTEM.DIHEDRAL>
0

>  <SCORE.SYSTEM.SOLV>
0

>  <SCORE.SYSTEM.norm>
0

>  <SCORE.heavy>
49

>  <SCORE.norm>
-0.0166075

>  <RMSD>
11.395

$$$$
ligand
 OpenBabel11021811513D
libRbt.so/2013.1/901 2013/11/27
 49 52  0  0  0  0  0  0  0  0999 V2000
   26.9219    5.5702   12.8677 C   0  0  2  0  0  0  0  0  0  0  0  0
   26.9362    6.3976   11.7420 O   0  0  0  0  0  0  0  0  0  0  0  0
   27.0741    4.0678   12.4242 C   0  0  2  0  0  0  0  0  0  0  0  0
   28.3795    3.9029   11.6618 N   0  0  0  0  0  0  0  0  0  0  0  0
   25.0319   12.8273   10.7918 O   0  0  0  0  0  0  0  0  0  0  0  0
   25.8617    3.6334   11.5678 C   0  0  2  0  0  0  0  0  0  0  0  0
   27.6186   14.8185    7.3489 N   0  0  0  0  0  0  0  0  0  0  0  0
   24.5542    3.8277   12.3515 C   0  0  2  0  0  0  0  0  0  0  0  0
   24.3663    5.3333   12.8181 C   0  0  2  0  0  0  0  0  0  0  0  0
   25.6099    5.7343   13.6137 O   0  0  0  0  0  0  0  0  0  0  0  0
   23.0685    5.5110   13.6582 C   0  0  0  0  0  0  0  0  0  0  0  0
   21.8883    5.1046   12.9830 N   0  0  0  0  0  0  0  0  0  0  0  0
   26.9410   10.6295   10.7967 C   0  0  2  0  0  0  0  0  0  0  0  0
   27.3465   12.0656   10.8170 N   0  0  0  0  0  0  0  0  0  0  0  0
   26.8853   10.1359   12.3230 C   0  0  0  0  0  0  0  0  0  0  0  0
   26.4388    8.6280   12.3961 C   0  0  2  0  0  0  0  0  0  0  0  0
   26.4034    8.1579   13.7888 N   0  0  0  0  0  0  0  0  0  0  0  0
   27.4258    7.7404   11.6119 C   0  0  2  0  0  0  0  0  0  0  0  0
   27.5078    8.2038   10.1015 C   0  0  2  0  0  0  0  0  0  0  0  0
   28.4646    7.2941    9.4407 O   0  0  0  0  0  0  0  0  0  0  0  0
   28.0296    9.7292   10.0518 C   0  0  1  0  0  0  0  0  0  0  0  0
   28.1025   10.1152    8.7156 O   0  0  0  0  0  0  0  0  0  0  0  0
   28.7271    7.2261    8.1801 C   0  0  1  0  0  0  0  0  0  0  0  0
   29.8594    6.2355    7.7786 C   0  0  2  0  0  0  0  0  0  0  0  0
   31.0647    6.9335    7.7770 O   0  0  0  0  0  0  0  0  0  0  0  0
   29.4074    5.9286    6.4113 C   0  0  1  0  0  0  0  0  0  0  0  0
   27.8511    5.8229    6.4261 C   0  0  2  0  0  0  0  0  0  0  0  0
   27.5881    6.8660    7.3323 O   0  0  0  0  0  0  0  0  0  0  0  0
   27.2219    4.4584    6.7108 C   0  0  0  0  0  0  0  0  0  0  0  0
   27.7118    3.5805    5.7148 O   0  0  0  0  0  0  0  0  0  0  0  0
   29.6736    6.9549    4.1979 C   0  0  2  0  0  0  0  0  0  0  0  0
   29.9049    7.0423    5.5405 O   0  0  0  0  0  0  0  0  0  0  0  0
   30.3919    5.7937    3.5761 C   0  0  1  0  0  0  0  0  0  0  0  0
   29.8570    9.7095   -0.2360 N   0  0  0  0  0  0  0  0  0  0  0  0
   27.4122   14.8478   12.1241 O   0  0  0  0  0  0  0  0  0  0  0  0
   30.1224    5.7836    2.0213 C   0  0  2  0  0  0  0  0  0  0  0  0
   30.5380    7.1134    1.3018 C   0  0  1  0  0  0  0  0  0  0  0  0
   29.8275    8.2136    1.9103 C   0  0  1  0  0  0  0  0  0  0  0  0
   30.0700    8.2454    3.4074 O   0  0  0  0  0  0  0  0  0  0  0  0
   30.2525    9.5925    1.2387 C   0  0  0  0  0  0  0  0  0  0  0  0
   31.7809    5.9210    3.7781 N   0  0  0  0  0  0  0  0  0  0  0  0
   25.9755    2.5298   11.2931 O   0  0  0  0  0  0  0  0  0  0  0  0
   27.7675   14.6443    9.8897 C   0  0  0  0  0  0  0  0  0  0  0  0
   31.6650    7.2694    1.4535 O   0  0  0  0  0  0  0  0  0  0  0  0
   28.9914    5.6566    1.8547 O   0  0  0  0  0  0  0  0  0  0  0  0
   26.2445   13.0826   10.8074 C   0  0  0  0  0  0  0  0  0  0  0  0
   27.1247   14.7616    8.6776 C   0  0  0  0  0  0  0  0  0  0  0  0
   26.8402   14.5843   10.8447 C   0  0  1  0  0  0  0  0  0  0  0  0
   24.5561    3.0114   13.4964 F   0  0  0  0  0  0  0  0  0  0  0  0
  1  2  1  6  0  0  0
  1 10  1  0  0  0  0
  1  3  1  0  0  0  0
  3  4  1  6  0  0  0
  3  6  1  0  0  0  0
  5 46  2  0  0  0  0
  6 42  1  1  0  0  0
  6  8  1  0  0  0  0
  7 47  1  0  0  0  0
  8  9  1  0  0  0  0
  8 49  1  1  0  0  0
  9 10  1  0  0  0  0
  9 11  1  1  0  0  0
 11 12  1  0  0  0  0
 13 14  1  1  0  0  0
 13 15  1  0  0  0  0
 13 21  1  0  0  0  0
 14 46  1  0  0  0  0
 15 16  1  0  0  0  0
 16 17  1  1  0  0  0
 16 18  1  0  0  0  0
 18  2  1  6  0  0  0
 18 19  1  0  0  0  0
 19 20  1  6  0  0  0
 19 21  1  0  0  0  0
 21 22  1  6  0  0  0
 23 20  1  1  0  0  0
 23 24  1  0  0  0  0
 23 28  1  0  0  0  0
 24 25  1  6  0  0  0
 24 26  1  0  0  0  0
 26 27  1  0  0  0  0
 26 32  1  6  0  0  0
 27 28  1  0  0  0  0
 27 29  1  1  0  0  0
 29 30  1  0  0  0  0
 31 32  1  1  0  0  0
 31 33  1  0  0  0  0
 31 39  1  0  0  0  0
 33 36  1  0  0  0  0
 33 41  1  6  0  0  0
 34 40  1  0  0  0  0
 35 48  1  0  0  0  0
 36 37  1  0  0  0  0
 36 45  1  1  0  0  0
 37 38  1  0  0  0  0
 37 44  1  1  0  0  0
 38 39  1  0  0  0  0
 38 40  1  6  0  0  0
 43 47  1  0  0  0  0
 46 48  1  0  0  0  0
 48 43  1  6  0  0  0
M  END
>  <CHROM.1>
-148.34414153,-70.56747371,-57.22934660,-93.81087677,172.36760897,175.83212768
176.61572709,-58.47003570,-64.60017851,64.99904603,-177.59781550,-163.28139719
108.90010240,27.73444113,7.74184054,8.52395842,-3.07274554,-1.13545692,-3.03370474

>  <Name>
ligand

>  <RI>
0

>  <Rbt.Current_Directory>
/home/itssahil/PROJECTS/Mol_Feturizer/New_Systems/rnas/4PDQ

>  <Rbt.Executable>
rbdock ($Id: //depot/dev/client3/rdock/2013.1/src/exe/rbdock.cxx#4 $)

>  <Rbt.Library>
libRbt.so (2013.1, Build901 2013/11/27)

>  <Rbt.Parameter_File>
/export/apps/rDock/src/rDock_2013.1_src/data/scripts/dock_solv.prm

>  <Rbt.Receptor>
prm/pocket_docking_8.prm

>  <SCORE>
-9.05761

>  <SCORE.INTER>
1.08599

>  <SCORE.INTER.CONST>
1

>  <SCORE.INTER.POLAR>
0

>  <SCORE.INTER.ROT>
13

>  <SCORE.INTER.SOLV>
16.3563

>  <SCORE.INTER.VDW>
-16.9948

>  <SCORE.INTER.norm>
0.0221632

>  <SCORE.INTRA>
-10.1436

>  <SCORE.INTRA.DIHEDRAL>
-26.7365

>  <SCORE.INTRA.DIHEDRAL.0>
34.5115

>  <SCORE.INTRA.POLAR>
0

>  <SCORE.INTRA.POLAR.0>
0

>  <SCORE.INTRA.REPUL>
0

>  <SCORE.INTRA.REPUL.0>
0

>  <SCORE.INTRA.SOLV>
-1.37135

>  <SCORE.INTRA.SOLV.lig_0>
-122.812

>  <SCORE.INTRA.VDW>
3.91031

>  <SCORE.INTRA.VDW.0>
-7.46208

>  <SCORE.INTRA.norm>
-0.207012

>  <SCORE.RESTR>
0

>  <SCORE.RESTR.CAVITY>
0

>  <SCORE.RESTR.norm>
0

>  <SCORE.SYSTEM>
0

>  <SCORE.SYSTEM.CONST>
0

>  <SCORE.SYSTEM.DIHEDRAL>
0

>  <SCORE.SYSTEM.SOLV>
0

>  <SCORE.SYSTEM.norm>
0

>  <SCORE.heavy>
49

>  <SCORE.norm>
-0.184849

>  <RMSD>
11.396

$$$$
ligand
 OpenBabel11021811513D
libRbt.so/2013.1/901 2013/11/27
 49 52  0  0  0  0  0  0  0  0999 V2000
   26.2912   15.9308   11.1931 C   0  0  2  0  0  0  0  0  0  0  0  0
   25.6064   15.1783   12.1506 O   0  0  0  0  0  0  0  0  0  0  0  0
   27.2332   16.9692   11.9083 C   0  0  2  0  0  0  0  0  0  0  0  0
   28.2153   16.2219   12.7968 N   0  0  0  0  0  0  0  0  0  0  0  0
   27.5908    9.0271    9.8281 O   0  0  0  0  0  0  0  0  0  0  0  0
   26.3966   17.9846   12.7214 C   0  0  2  0  0  0  0  0  0  0  0  0
   28.8759    5.2236   13.8486 N   0  0  0  0  0  0  0  0  0  0  0  0
   25.3988   18.7121   11.8066 C   0  0  2  0  0  0  0  0  0  0  0  0
   24.4313   17.6954   11.0652 C   0  0  2  0  0  0  0  0  0  0  0  0
   25.3014   16.6813   10.3203 O   0  0  0  0  0  0  0  0  0  0  0  0
   23.4611   18.4347   10.0989 C   0  0  0  0  0  0  0  0  0  0  0  0
   23.6482   18.1011    8.7323 N   0  0  0  0  0  0  0  0  0  0  0  0
   26.7085   11.0011   11.7774 C   0  0  2  0  0  0  0  0  0  0  0  0
   26.7481    9.5357   12.0573 N   0  0  0  0  0  0  0  0  0  0  0  0
   26.8298   11.7524   13.1906 C   0  0  0  0  0  0  0  0  0  0  0  0
   26.8210   13.3131   12.9849 C   0  0  2  0  0  0  0  0  0  0  0  0
   26.9113   14.0131   14.2747 N   0  0  0  0  0  0  0  0  0  0  0  0
   25.5181   13.7523   12.2874 C   0  0  2  0  0  0  0  0  0  0  0  0
   25.3653   13.0254   10.8905 C   0  0  2  0  0  0  0  0  0  0  0  0
   24.1018   13.5154   10.3050 O   0  0  0  0  0  0  0  0  0  0  0  0
   25.3112   11.4321   11.1352 C   0  0  1  0  0  0  0  0  0  0  0  0
   25.1688   10.8117    9.8965 O   0  0  0  0  0  0  0  0  0  0  0  0
   23.9547   14.1350    9.1837 C   0  0  1  0  0  0  0  0  0  0  0  0
   23.1028   13.3957    8.1103 C   0  0  2  0  0  0  0  0  0  0  0  0
   23.9624   12.6257    7.3304 O   0  0  0  0  0  0  0  0  0  0  0  0
   22.6084   14.5716    7.3749 C   0  0  1  0  0  0  0  0  0  0  0  0
   22.2836   15.6916    8.4110 C   0  0  2  0  0  0  0  0  0  0  0  0
   23.3584   15.4687    9.2905 O   0  0  0  0  0  0  0  0  0  0  0  0
   20.8758   15.7393    9.0066 C   0  0  0  0  0  0  0  0  0  0  0  0
   20.7407   17.0157    9.6025 O   0  0  0  0  0  0  0  0  0  0  0  0
   24.7534   15.6710    6.9125 C   0  0  2  0  0  0  0  0  0  0  0  0
   23.6957   14.9623    6.4202 O   0  0  0  0  0  0  0  0  0  0  0  0
   24.8792   17.0192    6.2662 C   0  0  1  0  0  0  0  0  0  0  0  0
   28.4841   13.3215    7.4618 N   0  0  0  0  0  0  0  0  0  0  0  0
   27.0052    6.2549   10.2760 O   0  0  0  0  0  0  0  0  0  0  0  0
   26.1472   17.7600    6.8435 C   0  0  2  0  0  0  0  0  0  0  0  0
   27.4818   16.9569    6.6632 C   0  0  1  0  0  0  0  0  0  0  0  0
   27.3399   15.6690    7.3010 C   0  0  1  0  0  0  0  0  0  0  0  0
   26.1260   14.9355    6.7629 O   0  0  0  0  0  0  0  0  0  0  0  0
   28.6590   14.8003    7.1046 C   0  0  0  0  0  0  0  0  0  0  0  0
   25.0538   16.8733    4.8753 N   0  0  0  0  0  0  0  0  0  0  0  0
   27.0990   18.7506   13.1969 O   0  0  0  0  0  0  0  0  0  0  0  0
   28.4168    6.8630   11.9486 C   0  0  0  0  0  0  0  0  0  0  0  0
   27.6591   16.7980    5.5403 O   0  0  0  0  0  0  0  0  0  0  0  0
   25.9956   17.9003    7.9752 O   0  0  0  0  0  0  0  0  0  0  0  0
   27.2235    8.6452   10.9484 C   0  0  0  0  0  0  0  0  0  0  0  0
   28.3627    5.6490   12.5962 C   0  0  0  0  0  0  0  0  0  0  0  0
   27.2218    7.0957   11.4072 C   0  0  1  0  0  0  0  0  0  0  0  0
   26.0930   19.4477   10.8297 F   0  0  0  0  0  0  0  0  0  0  0  0
  1  2  1  1  0  0  0
  1 10  1  0  0  0  0
  1  3  1  0  0  0  0
  3  4  1  1  0  0  0
  3  6  1  0  0  0  0
  5 46  2  0  0  0  0
  6 42  1  6  0  0  0
  6  8  1  0  0  0  0
  7 47  1  0  0  0  0
  8  9  1  0  0  0  0
  8 49  1  6  0  0  0
  9 10  1  0  0  0  0
  9 11  1  6  0  0  0
 11 12  1  0  0  0  0
 13 14  1  1  0  0  0
 13 15  1  0  0  0  0
 13 21  1  0  0  0  0
 14 46  1  0  0  0  0
 15 16  1  0  0  0  0
 16 17  1  1  0  0  0
 16 18  1  0  0  0  0
 18  2  1  6  0  0  0
 18 19  1  0  0  0  0
 19 20  1  1  0  0  0
 19 21  1  0  0  0  0
 21 22  1  6  0  0  0
 23 20  1  1  0  0  0
 23 24  1  0  0  0  0
 23 28  1  0  0  0  0
 24 25  1  6  0  0  0
 24 26  1  0  0  0  0
 26 27  1  0  0  0  0
 26 32  1  6  0  0  0
 27 28  1  0  0  0  0
 27 29  1  1  0  0  0
 29 30  1  0  0  0  0
 31 32  1  6  0  0  0
 31 33  1  0  0  0  0
 31 39  1  0  0  0  0
 33 36  1  0  0  0  0
 33 41  1  6  0  0  0
 34 40  1  0  0  0  0
 35 48  1  0  0  0  0
 36 37  1  0  0  0  0
 36 45  1  1  0  0  0
 37 38  1  0  0  0  0
 37 44  1  6  0  0  0
 38 39  1  0  0  0  0
 38 40  1  6  0  0  0
 43 47  1  0  0  0  0
 46 48  1  0  0  0  0
 48 43  1  6  0  0  0
M  END
>  <CHROM.1>
-126.67214122,80.46583291,115.93052676,-154.98692322,120.51550032,116.67987080
-79.26535778,-164.40266555,-118.72241239,-166.71203007,-138.22153951,-72.79373580
-30.06140489,25.71145342,14.16710014,9.87471645,-2.41596065,1.21993034,-2.64826179

>  <Name>
ligand

>  <RI>
0

>  <Rbt.Current_Directory>
/home/itssahil/PROJECTS/Mol_Feturizer/New_Systems/rnas/4PDQ

>  <Rbt.Executable>
rbdock ($Id: //depot/dev/client3/rdock/2013.1/src/exe/rbdock.cxx#4 $)

>  <Rbt.Library>
libRbt.so (2013.1, Build901 2013/11/27)

>  <Rbt.Parameter_File>
/export/apps/rDock/src/rDock_2013.1_src/data/scripts/dock_solv.prm

>  <Rbt.Receptor>
prm/blind_docking_60.prm

>  <SCORE>
22.6334

>  <SCORE.INTER>
7.65333

>  <SCORE.INTER.CONST>
1

>  <SCORE.INTER.POLAR>
0

>  <SCORE.INTER.ROT>
13

>  <SCORE.INTER.SOLV>
30.4865

>  <SCORE.INTER.VDW>
-17.3266

>  <SCORE.INTER.norm>
0.15619

>  <SCORE.INTRA>
14.11

>  <SCORE.INTRA.DIHEDRAL>
11.1464

>  <SCORE.INTRA.DIHEDRAL.0>
34.5115

>  <SCORE.INTRA.POLAR>
0

>  <SCORE.INTRA.POLAR.0>
0

>  <SCORE.INTRA.REPUL>
0.612439

>  <SCORE.INTRA.REPUL.0>
0

>  <SCORE.INTRA.SOLV>
9.33907

>  <SCORE.INTRA.SOLV.lig_0>
-122.812

>  <SCORE.INTRA.VDW>
0.805128

>  <SCORE.INTRA.VDW.0>
-7.46208

>  <SCORE.INTRA.norm>
0.28796

>  <SCORE.RESTR>
0.870057

>  <SCORE.RESTR.CAVITY>
0.870057

>  <SCORE.RESTR.norm>
0.0177563

>  <SCORE.SYSTEM>
0

>  <SCORE.SYSTEM.CONST>
0

>  <SCORE.SYSTEM.DIHEDRAL>
0

>  <SCORE.SYSTEM.SOLV>
0

>  <SCORE.SYSTEM.norm>
0

>  <SCORE.heavy>
49

>  <SCORE.norm>
0.461907

>  <RMSD>
11.402

$$$$
ligand
 OpenBabel11021811513D
libRbt.so/2013.1/901 2013/11/27
 49 52  0  0  0  0  0  0  0  0999 V2000
   25.2643   14.8621    8.1705 C   0  0  2  0  0  0  0  0  0  0  0  0
   24.9305   13.6523    8.7846 O   0  0  0  0  0  0  0  0  0  0  0  0
   24.2030   15.2042    7.0597 C   0  0  2  0  0  0  0  0  0  0  0  0
   22.8256   15.2959    7.6976 N   0  0  0  0  0  0  0  0  0  0  0  0
   28.1607   10.1128   11.9274 O   0  0  0  0  0  0  0  0  0  0  0  0
   24.2355   14.1402    5.9378 C   0  0  2  0  0  0  0  0  0  0  0  0
   29.7725   11.8596   15.5117 N   0  0  0  0  0  0  0  0  0  0  0  0
   25.6410   14.0520    5.3226 C   0  0  2  0  0  0  0  0  0  0  0  0
   26.7406   13.7097    6.4150 C   0  0  2  0  0  0  0  0  0  0  0  0
   26.6352   14.7547    7.5273 O   0  0  0  0  0  0  0  0  0  0  0  0
   28.1676   13.6769    5.7951 C   0  0  0  0  0  0  0  0  0  0  0  0
   29.1939   13.3931    6.7333 N   0  0  0  0  0  0  0  0  0  0  0  0
   25.6043   11.4099   12.4343 C   0  0  2  0  0  0  0  0  0  0  0  0
   26.2666   10.4971   13.4116 N   0  0  0  0  0  0  0  0  0  0  0  0
   25.6360   10.6737   11.0084 C   0  0  0  0  0  0  0  0  0  0  0  0
   24.9313   11.5621    9.9163 C   0  0  2  0  0  0  0  0  0  0  0  0
   24.9718   10.9070    8.6006 N   0  0  0  0  0  0  0  0  0  0  0  0
   25.6404   12.9260    9.7986 C   0  0  2  0  0  0  0  0  0  0  0  0
   25.6305   13.6775   11.1908 C   0  0  2  0  0  0  0  0  0  0  0  0
   26.3203   14.9641   10.9716 O   0  0  0  0  0  0  0  0  0  0  0  0
   26.4147   12.7768   12.2749 C   0  0  1  0  0  0  0  0  0  0  0  0
   26.4019   13.4580   13.4896 O   0  0  0  0  0  0  0  0  0  0  0  0
   25.7784   16.0928   10.6629 C   0  0  1  0  0  0  0  0  0  0  0  0
   24.4490   16.4279   11.4011 C   0  0  2  0  0  0  0  0  0  0  0  0
   23.3928   15.9497   10.6293 O   0  0  0  0  0  0  0  0  0  0  0  0
   24.5358   17.8969   11.3527 C   0  0  1  0  0  0  0  0  0  0  0  0
   26.0226   18.3041   11.5919 C   0  0  2  0  0  0  0  0  0  0  0  0
   26.6339   17.2638   10.8691 O   0  0  0  0  0  0  0  0  0  0  0  0
   26.4857   18.5379   13.0306 C   0  0  0  0  0  0  0  0  0  0  0  0
   26.4653   17.2726   13.6639 O   0  0  0  0  0  0  0  0  0  0  0  0
   23.7022   19.6183    9.8147 C   0  0  2  0  0  0  0  0  0  0  0  0
   24.0323   18.3070   10.0020 O   0  0  0  0  0  0  0  0  0  0  0  0
   23.1936   19.8795    8.4276 C   0  0  1  0  0  0  0  0  0  0  0  0
   26.6957   22.4332   11.3986 N   0  0  0  0  0  0  0  0  0  0  0  0
   28.4386    7.6512   13.6429 O   0  0  0  0  0  0  0  0  0  0  0  0
   22.8810   21.4178    8.2660 C   0  0  2  0  0  0  0  0  0  0  0  0
   24.1098   22.3447    8.5656 C   0  0  1  0  0  0  0  0  0  0  0  0
   24.5746   22.0823    9.9074 C   0  0  1  0  0  0  0  0  0  0  0  0
   24.8822   20.6080   10.0891 O   0  0  0  0  0  0  0  0  0  0  0  0
   25.8517   22.9720   10.2400 C   0  0  0  0  0  0  0  0  0  0  0  0
   24.1766   19.5314    7.4795 N   0  0  0  0  0  0  0  0  0  0  0  0
   23.4866   14.4322    5.1252 O   0  0  0  0  0  0  0  0  0  0  0  0
   29.2997    9.5299   14.5858 C   0  0  0  0  0  0  0  0  0  0  0  0
   24.9473   22.0852    7.8247 O   0  0  0  0  0  0  0  0  0  0  0  0
   22.0623   21.6984    9.0237 O   0  0  0  0  0  0  0  0  0  0  0  0
   27.5809    9.9023   13.0022 C   0  0  0  0  0  0  0  0  0  0  0  0
   28.9730   10.7503   15.1335 C   0  0  0  0  0  0  0  0  0  0  0  0
   28.1752    8.9514   14.1659 C   0  0  1  0  0  0  0  0  0  0  0  0
   25.9815   15.2799    4.7280 F   0  0  0  0  0  0  0  0  0  0  0  0
  1  2  1  6  0  0  0
  1 10  1  0  0  0  0
  1  3  1  0  0  0  0
  3  4  1  1  0  0  0
  3  6  1  0  0  0  0
  5 46  2  0  0  0  0
  6 42  1  6  0  0  0
  6  8  1  0  0  0  0
  7 47  1  0  0  0  0
  8  9  1  0  0  0  0
  8 49  1  1  0  0  0
  9 10  1  0  0  0  0
  9 11  1  6  0  0  0
 11 12  1  0  0  0  0
 13 14  1  1  0  0  0
 13 15  1  0  0  0  0
 13 21  1  0  0  0  0
 14 46  1  0  0  0  0
 15 16  1  0  0  0  0
 16 17  1  6  0  0  0
 16 18  1  0  0  0  0
 18  2  1  6  0  0  0
 18 19  1  0  0  0  0
 19 20  1  6  0  0  0
 19 21  1  0  0  0  0
 21 22  1  1  0  0  0
 23 20  1  1  0  0  0
 23 24  1  0  0  0  0
 23 28  1  0  0  0  0
 24 25  1  6  0  0  0
 24 26  1  0  0  0  0
 26 27  1  0  0  0  0
 26 32  1  6  0  0  0
 27 28  1  0  0  0  0
 27 29  1  1  0  0  0
 29 30  1  0  0  0  0
 31 32  1  6  0  0  0
 31 33  1  0  0  0  0
 31 39  1  0  0  0  0
 33 36  1  0  0  0  0
 33 41  1  6  0  0  0
 34 40  1  0  0  0  0
 35 48  1  0  0  0  0
 36 37  1  0  0  0  0
 36 45  1  1  0  0  0
 37 38  1  0  0  0  0
 37 44  1  6  0  0  0
 38 39  1  0  0  0  0
 38 40  1  6  0  0  0
 43 47  1  0  0  0  0
 46 48  1  0  0  0  0
 48 43  1  6  0  0  0
M  END
>  <CHROM.1>
176.77409301,-170.69795692,179.17618828,47.66122027,92.90926314,41.02060513
164.34909926,68.44131820,-179.04943530,-159.54514936,-167.46211167,-177.26885787
-56.06044969,25.72772413,15.42409219,10.06697582,2.63991934,-1.23285172,0.68983023

>  <Name>
ligand

>  <RI>
0

>  <Rbt.Current_Directory>
/home/itssahil/PROJECTS/Mol_Feturizer/New_Systems/rnas/4PDQ

>  <Rbt.Executable>
rbdock ($Id: //depot/dev/client3/rdock/2013.1/src/exe/rbdock.cxx#4 $)

>  <Rbt.Library>
libRbt.so (2013.1, Build901 2013/11/27)

>  <Rbt.Parameter_File>
/export/apps/rDock/src/rDock_2013.1_src/data/scripts/dock_solv.prm

>  <Rbt.Receptor>
prm/blind_docking_40.prm

>  <SCORE>
6.44132

>  <SCORE.INTER>
7.0009

>  <SCORE.INTER.CONST>
1

>  <SCORE.INTER.POLAR>
0

>  <SCORE.INTER.ROT>
13

>  <SCORE.INTER.SOLV>
26.4786

>  <SCORE.INTER.VDW>
-16.4256

>  <SCORE.INTER.norm>
0.142876

>  <SCORE.INTRA>
-6.88068

>  <SCORE.INTRA.DIHEDRAL>
-22.2929

>  <SCORE.INTRA.DIHEDRAL.0>
34.5115

>  <SCORE.INTRA.POLAR>
0

>  <SCORE.INTRA.POLAR.0>
0

>  <SCORE.INTRA.REPUL>
0.0429251

>  <SCORE.INTRA.REPUL.0>
0

>  <SCORE.INTRA.SOLV>
-0.250853

>  <SCORE.INTRA.SOLV.lig_0>
-122.812

>  <SCORE.INTRA.VDW>
4.17655

>  <SCORE.INTRA.VDW.0>
-7.46208

>  <SCORE.INTRA.norm>
-0.140422

>  <SCORE.RESTR>
6.3211

>  <SCORE.RESTR.CAVITY>
6.3211

>  <SCORE.RESTR.norm>
0.129002

>  <SCORE.SYSTEM>
0

>  <SCORE.SYSTEM.CONST>
0

>  <SCORE.SYSTEM.DIHEDRAL>
0

>  <SCORE.SYSTEM.SOLV>
0

>  <SCORE.SYSTEM.norm>
0

>  <SCORE.heavy>
49

>  <SCORE.norm>
0.131456

>  <RMSD>
11.440

$$$$
ligand
 OpenBabel11021811513D
libRbt.so/2013.1/901 2013/11/27
 49 52  0  0  0  0  0  0  0  0999 V2000
   26.0575   12.4434   13.0564 C   0  0  2  0  0  0  0  0  0  0  0  0
   27.0953   12.7036   12.1580 O   0  0  0  0  0  0  0  0  0  0  0  0
   26.5401   12.7389   14.5250 C   0  0  2  0  0  0  0  0  0  0  0  0
   26.9745   14.1929   14.6239 N   0  0  0  0  0  0  0  0  0  0  0  0
   25.6805   13.5702    6.6722 O   0  0  0  0  0  0  0  0  0  0  0  0
   27.6872   11.7792   14.9185 C   0  0  2  0  0  0  0  0  0  0  0  0
   26.6552   11.4151    1.7617 N   0  0  0  0  0  0  0  0  0  0  0  0
   27.2309   10.3173   14.7918 C   0  0  2  0  0  0  0  0  0  0  0  0
   26.7343    9.9815   13.3220 C   0  0  2  0  0  0  0  0  0  0  0  0
   25.6405   10.9870   12.9573 O   0  0  0  0  0  0  0  0  0  0  0  0
   26.2220    8.5160   13.2152 C   0  0  0  0  0  0  0  0  0  0  0  0
   25.7852    7.9698   14.4501 N   0  0  0  0  0  0  0  0  0  0  0  0
   28.2238   13.0367    7.9844 C   0  0  2  0  0  0  0  0  0  0  0  0
   28.0919   13.2569    6.5143 N   0  0  0  0  0  0  0  0  0  0  0  0
   27.0112   12.0825    8.4267 C   0  0  0  0  0  0  0  0  0  0  0  0
   27.0880   11.7768    9.9691 C   0  0  2  0  0  0  0  0  0  0  0  0
   25.9703   10.9194   10.3906 N   0  0  0  0  0  0  0  0  0  0  0  0
   27.0220   13.0881   10.7772 C   0  0  2  0  0  0  0  0  0  0  0  0
   28.2033   14.0550   10.3617 C   0  0  2  0  0  0  0  0  0  0  0  0
   28.0565   15.2678   11.1904 O   0  0  0  0  0  0  0  0  0  0  0  0
   28.0637   14.4044    8.7933 C   0  0  1  0  0  0  0  0  0  0  0  0
   29.1063   15.2613    8.4494 O   0  0  0  0  0  0  0  0  0  0  0  0
   27.0578   16.0835   11.2026 C   0  0  1  0  0  0  0  0  0  0  0  0
   25.9833   15.8191   12.2980 C   0  0  2  0  0  0  0  0  0  0  0  0
   25.0154   14.9743   11.7600 O   0  0  0  0  0  0  0  0  0  0  0  0
   25.4807   17.1949   12.4486 C   0  0  1  0  0  0  0  0  0  0  0  0
   26.6958   18.1689   12.3570 C   0  0  2  0  0  0  0  0  0  0  0  0
   27.4175   17.4953   11.3551 O   0  0  0  0  0  0  0  0  0  0  0  0
   27.4349   18.5260   13.6474 C   0  0  0  0  0  0  0  0  0  0  0  0
   28.3221   17.4540   13.9054 O   0  0  0  0  0  0  0  0  0  0  0  0
   24.9127   18.0239   10.2095 C   0  0  2  0  0  0  0  0  0  0  0  0
   24.4847   17.4051   11.3485 O   0  0  0  0  0  0  0  0  0  0  0  0
   24.5759   19.4859   10.2010 C   0  0  1  0  0  0  0  0  0  0  0  0
   24.1307   15.7500    6.4925 N   0  0  0  0  0  0  0  0  0  0  0  0
   27.4480   14.9431    4.0806 O   0  0  0  0  0  0  0  0  0  0  0  0
   25.0520   20.1247    8.8389 C   0  0  2  0  0  0  0  0  0  0  0  0
   24.4428   19.4309    7.5714 C   0  0  1  0  0  0  0  0  0  0  0  0
   24.7881   18.0289    7.5969 C   0  0  1  0  0  0  0  0  0  0  0  0
   24.3409   17.3906    8.8983 O   0  0  0  0  0  0  0  0  0  0  0  0
   24.1518   17.2744    6.3484 C   0  0  0  0  0  0  0  0  0  0  0  0
   23.1810   19.6605   10.3016 N   0  0  0  0  0  0  0  0  0  0  0  0
   27.9918   11.9860   16.0006 O   0  0  0  0  0  0  0  0  0  0  0  0
   27.3447   12.6842    3.8645 C   0  0  0  0  0  0  0  0  0  0  0  0
   23.3004   19.5333    7.6174 O   0  0  0  0  0  0  0  0  0  0  0  0
   26.1936   20.0032    8.7661 O   0  0  0  0  0  0  0  0  0  0  0  0
   26.7121   13.5167    5.9876 C   0  0  0  0  0  0  0  0  0  0  0  0
   26.4622   12.0654    3.0077 C   0  0  0  0  0  0  0  0  0  0  0  0
   26.7352   13.7470    4.3883 C   0  0  1  0  0  0  0  0  0  0  0  0
   26.1699   10.0679   15.6802 F   0  0  0  0  0  0  0  0  0  0  0  0
  1  2  1  6  0  0  0
  1 10  1  0  0  0  0
  1  3  1  0  0  0  0
  3  4  1  6  0  0  0
  3  6  1  0  0  0  0
  5 46  2  0  0  0  0
  6 42  1  1  0  0  0
  6  8  1  0  0  0  0
  7 47  1  0  0  0  0
  8  9  1  0  0  0  0
  8 49  1  1  0  0  0
  9 10  1  0  0  0  0
  9 11  1  1  0  0  0
 11 12  1  0  0  0  0
 13 14  1  6  0  0  0
 13 15  1  0  0  0  0
 13 21  1  0  0  0  0
 14 46  1  0  0  0  0
 15 16  1  0  0  0  0
 16 17  1  1  0  0  0
 16 18  1  0  0  0  0
 18  2  1  1  0  0  0
 18 19  1  0  0  0  0
 19 20  1  1  0  0  0
 19 21  1  0  0  0  0
 21 22  1  6  0  0  0
 23 20  1  1  0  0  0
 23 24  1  0  0  0  0
 23 28  1  0  0  0  0
 24 25  1  6  0  0  0
 24 26  1  0  0  0  0
 26 27  1  0  0  0  0
 26 32  1  6  0  0  0
 27 28  1  0  0  0  0
 27 29  1  1  0  0  0
 29 30  1  0  0  0  0
 31 32  1  1  0  0  0
 31 33  1  0  0  0  0
 31 39  1  0  0  0  0
 33 36  1  0  0  0  0
 33 41  1  6  0  0  0
 34 40  1  0  0  0  0
 35 48  1  0  0  0  0
 36 37  1  0  0  0  0
 36 45  1  6  0  0  0
 37 38  1  0  0  0  0
 37 44  1  1  0  0  0
 38 39  1  0  0  0  0
 38 40  1  6  0  0  0
 43 47  1  0  0  0  0
 46 48  1  0  0  0  0
 48 43  1  6  0  0  0
M  END
>  <CHROM.1>
-152.89598235,-92.88394381,24.31849954,42.58309557,-61.73521700,95.01928475
-96.70506183,81.31584650,-98.00800418,-163.90353203,143.01008969,-120.63928195
113.38367042,26.34517676,14.62531170,10.15452410,-0.88581150,1.36788945,-1.64387505

>  <Name>
ligand

>  <RI>
0

>  <Rbt.Current_Directory>
/home/itssahil/PROJECTS/Mol_Feturizer/New_Systems/rnas/4PDQ

>  <Rbt.Executable>
rbdock ($Id: //depot/dev/client3/rdock/2013.1/src/exe/rbdock.cxx#4 $)

>  <Rbt.Library>
libRbt.so (2013.1, Build901 2013/11/27)

>  <Rbt.Parameter_File>
/export/apps/rDock/src/rDock_2013.1_src/data/scripts/dock_solv.prm

>  <Rbt.Receptor>
prm/blind_docking_60.prm

>  <SCORE>
31.117

>  <SCORE.INTER>
16.9969

>  <SCORE.INTER.CONST>
1

>  <SCORE.INTER.POLAR>
0

>  <SCORE.INTER.ROT>
13

>  <SCORE.INTER.SOLV>
30.3848

>  <SCORE.INTER.VDW>
-11.0636

>  <SCORE.INTER.norm>
0.346876

>  <SCORE.INTRA>
9.75759

>  <SCORE.INTRA.DIHEDRAL>
2.8454

>  <SCORE.INTRA.DIHEDRAL.0>
34.5115

>  <SCORE.INTRA.POLAR>
0

>  <SCORE.INTRA.POLAR.0>
0

>  <SCORE.INTRA.REPUL>
0

>  <SCORE.INTRA.REPUL.0>
0

>  <SCORE.INTRA.SOLV>
7.41535

>  <SCORE.INTRA.SOLV.lig_0>
-122.812

>  <SCORE.INTRA.VDW>
4.62722

>  <SCORE.INTRA.VDW.0>
-7.46208

>  <SCORE.INTRA.norm>
0.199134

>  <SCORE.RESTR>
4.36247

>  <SCORE.RESTR.CAVITY>
4.36247

>  <SCORE.RESTR.norm>
0.08903

>  <SCORE.SYSTEM>
0

>  <SCORE.SYSTEM.CONST>
0

>  <SCORE.SYSTEM.DIHEDRAL>
0

>  <SCORE.SYSTEM.SOLV>
0

>  <SCORE.SYSTEM.norm>
0

>  <SCORE.heavy>
49

>  <SCORE.norm>
0.63504

>  <RMSD>
11.440

$$$$
ligand
 OpenBabel11021811513D
libRbt.so/2013.1/901 2013/11/27
 49 52  0  0  0  0  0  0  0  0999 V2000
   23.5739   17.3198   10.8582 C   0  0  2  0  0  0  0  0  0  0  0  0
   23.9017   16.2497   10.0218 O   0  0  0  0  0  0  0  0  0  0  0  0
   23.3534   18.6186    9.9969 C   0  0  2  0  0  0  0  0  0  0  0  0
   22.2377   18.3684    8.9944 N   0  0  0  0  0  0  0  0  0  0  0  0
   24.6070   11.6532   14.4586 O   0  0  0  0  0  0  0  0  0  0  0  0
   24.6672   19.0252    9.2894 C   0  0  2  0  0  0  0  0  0  0  0  0
   28.0714    8.5063   11.4396 N   0  0  0  0  0  0  0  0  0  0  0  0
   25.7836   19.2529   10.3205 C   0  0  2  0  0  0  0  0  0  0  0  0
   26.0339   17.9629   11.2109 C   0  0  2  0  0  0  0  0  0  0  0  0
   24.6995   17.5677   11.8462 O   0  0  0  0  0  0  0  0  0  0  0  0
   27.1266   18.2187   12.2889 C   0  0  0  0  0  0  0  0  0  0  0  0
   27.4389   17.0765   13.0712 N   0  0  0  0  0  0  0  0  0  0  0  0
   25.9217   13.2413   12.4033 C   0  0  2  0  0  0  0  0  0  0  0  0
   26.4110   11.9005   12.8392 N   0  0  0  0  0  0  0  0  0  0  0  0
   24.3705   13.0750   12.0258 C   0  0  0  0  0  0  0  0  0  0  0  0
   23.7641   14.4563   11.5757 C   0  0  2  0  0  0  0  0  0  0  0  0
   22.3478   14.3129   11.2077 N   0  0  0  0  0  0  0  0  0  0  0  0
   24.5280   15.0015   10.3525 C   0  0  2  0  0  0  0  0  0  0  0  0
   26.0640   15.1735   10.6901 C   0  0  2  0  0  0  0  0  0  0  0  0
   26.6998   15.7030    9.4675 O   0  0  0  0  0  0  0  0  0  0  0  0
   26.6755   13.7340   11.0843 C   0  0  1  0  0  0  0  0  0  0  0  0
   28.0278   13.9050   11.3698 O   0  0  0  0  0  0  0  0  0  0  0  0
   27.0482   15.0341    8.4216 C   0  0  1  0  0  0  0  0  0  0  0  0
   27.9518   15.7922    7.4051 C   0  0  2  0  0  0  0  0  0  0  0  0
   27.1260   16.4152    6.4725 O   0  0  0  0  0  0  0  0  0  0  0  0
   28.6491   14.6326    6.8245 C   0  0  1  0  0  0  0  0  0  0  0  0
   28.9493   13.6208    7.9732 C   0  0  2  0  0  0  0  0  0  0  0  0
   27.7551   13.7814    8.6988 O   0  0  0  0  0  0  0  0  0  0  0  0
   30.2682   13.7619    8.7346 C   0  0  0  0  0  0  0  0  0  0  0  0
   30.3436   15.1127    9.1495 O   0  0  0  0  0  0  0  0  0  0  0  0
   26.4990   13.6449    6.1727 C   0  0  2  0  0  0  0  0  0  0  0  0
   27.7355   14.0686    5.7788 O   0  0  0  0  0  0  0  0  0  0  0  0
   25.8700   12.7271    5.1661 C   0  0  1  0  0  0  0  0  0  0  0  0
   21.7839   15.3522    7.6510 N   0  0  0  0  0  0  0  0  0  0  0  0
   25.5014    9.1273   15.2805 O   0  0  0  0  0  0  0  0  0  0  0  0
   24.4279   12.3189    5.6597 C   0  0  2  0  0  0  0  0  0  0  0  0
   23.4842   13.5424    5.9270 C   0  0  1  0  0  0  0  0  0  0  0  0
   24.1057   14.4047    6.9046 C   0  0  1  0  0  0  0  0  0  0  0  0
   25.4956   14.8118    6.4533 O   0  0  0  0  0  0  0  0  0  0  0  0
   23.2006   15.6857    7.1748 C   0  0  0  0  0  0  0  0  0  0  0  0
   25.7376   13.3869    3.9277 N   0  0  0  0  0  0  0  0  0  0  0  0
   24.4921   19.9914    8.7045 O   0  0  0  0  0  0  0  0  0  0  0  0
   26.2487    9.0604   13.1364 C   0  0  0  0  0  0  0  0  0  0  0  0
   23.3589   14.1234    4.9450 O   0  0  0  0  0  0  0  0  0  0  0  0
   24.5364   11.7600    6.6593 O   0  0  0  0  0  0  0  0  0  0  0  0
   25.6267   11.2076   13.9132 C   0  0  0  0  0  0  0  0  0  0  0  0
   27.4701    9.2058   12.5176 C   0  0  0  0  0  0  0  0  0  0  0  0
   26.2709    9.7680   14.2652 C   0  0  1  0  0  0  0  0  0  0  0  0
   25.4371   20.3144   11.1751 F   0  0  0  0  0  0  0  0  0  0  0  0
  1  2  1  6  0  0  0
  1 10  1  0  0  0  0
  1  3  1  0  0  0  0
  3  4  1  6  0  0  0
  3  6  1  0  0  0  0
  5 46  2  0  0  0  0
  6 42  1  1  0  0  0
  6  8  1  0  0  0  0
  7 47  1  0  0  0  0
  8  9  1  0  0  0  0
  8 49  1  1  0  0  0
  9 10  1  0  0  0  0
  9 11  1  1  0  0  0
 11 12  1  0  0  0  0
 13 14  1  6  0  0  0
 13 15  1  0  0  0  0
 13 21  1  0  0  0  0
 14 46  1  0  0  0  0
 15 16  1  0  0  0  0
 16 17  1  6  0  0  0
 16 18  1  0  0  0  0
 18  2  1  1  0  0  0
 18 19  1  0  0  0  0
 19 20  1  6  0  0  0
 19 21  1  0  0  0  0
 21 22  1  1  0  0  0
 23 20  1  1  0  0  0
 23 24  1  0  0  0  0
 23 28  1  0  0  0  0
 24 25  1  6  0  0  0
 24 26  1  0  0  0  0
 26 27  1  0  0  0  0
 26 32  1  6  0  0  0
 27 28  1  0  0  0  0
 27 29  1  1  0  0  0
 29 30  1  0  0  0  0
 31 32  1  6  0  0  0
 31 33  1  0  0  0  0
 31 39  1  0  0  0  0
 33 36  1  0  0  0  0
 33 41  1  6  0  0  0
 34 40  1  0  0  0  0
 35 48  1  0  0  0  0
 36 37  1  0  0  0  0
 36 45  1  1  0  0  0
 37 38  1  0  0  0  0
 37 44  1  6  0  0  0
 38 39  1  0  0  0  0
 38 40  1  6  0  0  0
 43 47  1  0  0  0  0
 46 48  1  0  0  0  0
 48 43  1  6  0  0  0
M  END
>  <CHROM.1>
161.34199553,48.63369514,-177.01191929,-52.64201322,-79.78185350,-168.13452859
-59.48035179,51.60911253,-161.77817612,57.58364157,167.25137020,-145.90504224
-0.48194505,25.75955311,14.59099270,9.62828073,2.33567649,1.31085589,-1.42920240

>  <Name>
ligand

>  <RI>
0

>  <Rbt.Current_Directory>
/home/itssahil/PROJECTS/Mol_Feturizer/New_Systems/rnas/4PDQ

>  <Rbt.Executable>
rbdock ($Id: //depot/dev/client3/rdock/2013.1/src/exe/rbdock.cxx#4 $)

>  <Rbt.Library>
libRbt.so (2013.1, Build901 2013/11/27)

>  <Rbt.Parameter_File>
/export/apps/rDock/src/rDock_2013.1_src/data/scripts/dock_solv.prm

>  <Rbt.Receptor>
prm/blind_docking_80.prm

>  <SCORE>
45.8692

>  <SCORE.INTER>
41.417

>  <SCORE.INTER.CONST>
1

>  <SCORE.INTER.POLAR>
0

>  <SCORE.INTER.ROT>
13

>  <SCORE.INTER.SOLV>
36.5454

>  <SCORE.INTER.VDW>
3.1629

>  <SCORE.INTER.norm>
0.845245

>  <SCORE.INTRA>
0.80922

>  <SCORE.INTRA.DIHEDRAL>
-23.4162

>  <SCORE.INTRA.DIHEDRAL.0>
34.5115

>  <SCORE.INTRA.POLAR>
0

>  <SCORE.INTRA.POLAR.0>
0

>  <SCORE.INTRA.REPUL>
0

>  <SCORE.INTRA.REPUL.0>
0

>  <SCORE.INTRA.SOLV>
6.25855

>  <SCORE.INTRA.SOLV.lig_0>
-122.812

>  <SCORE.INTRA.VDW>
9.38804

>  <SCORE.INTRA.VDW.0>
-7.46208

>  <SCORE.INTRA.norm>
0.0165147

>  <SCORE.RESTR>
3.64295

>  <SCORE.RESTR.CAVITY>
3.64295

>  <SCORE.RESTR.norm>
0.074346

>  <SCORE.SYSTEM>
0

>  <SCORE.SYSTEM.CONST>
0

>  <SCORE.SYSTEM.DIHEDRAL>
0

>  <SCORE.SYSTEM.SOLV>
0

>  <SCORE.SYSTEM.norm>
0

>  <SCORE.heavy>
49

>  <SCORE.norm>
0.936106

>  <RMSD>
11.444

$$$$
ligand
 OpenBabel11021811513D
libRbt.so/2013.1/901 2013/11/27
 49 52  0  0  0  0  0  0  0  0999 V2000
   24.8529   14.8316    7.0485 C   0  0  2  0  0  0  0  0  0  0  0  0
   25.5630   15.1412    8.2112 O   0  0  0  0  0  0  0  0  0  0  0  0
   25.2549   15.8292    5.8994 C   0  0  2  0  0  0  0  0  0  0  0  0
   26.7513   15.7254    5.6500 N   0  0  0  0  0  0  0  0  0  0  0  0
   27.7425   12.1322   12.8315 O   0  0  0  0  0  0  0  0  0  0  0  0
   24.8436   17.2730    6.2712 C   0  0  2  0  0  0  0  0  0  0  0  0
   26.0830   10.8633   14.6156 N   0  0  0  0  0  0  0  0  0  0  0  0
   23.3320   17.3484    6.5377 C   0  0  2  0  0  0  0  0  0  0  0  0
   22.8878   16.3529    7.6914 C   0  0  2  0  0  0  0  0  0  0  0  0
   23.3615   14.9502    7.3061 O   0  0  0  0  0  0  0  0  0  0  0  0
   21.3487   16.3942    7.9175 C   0  0  0  0  0  0  0  0  0  0  0  0
   20.5929   15.9538    6.7999 N   0  0  0  0  0  0  0  0  0  0  0  0
   26.5223   11.4517   10.2775 C   0  0  2  0  0  0  0  0  0  0  0  0
   27.2820   10.4720   11.1083 N   0  0  0  0  0  0  0  0  0  0  0  0
   27.5671   12.1044    9.2486 C   0  0  0  0  0  0  0  0  0  0  0  0
   26.8402   13.1390    8.3108 C   0  0  2  0  0  0  0  0  0  0  0  0
   27.7912   13.7591    7.3765 N   0  0  0  0  0  0  0  0  0  0  0  0
   26.1906   14.2566    9.1510 C   0  0  2  0  0  0  0  0  0  0  0  0
   25.1563   13.6456   10.1806 C   0  0  2  0  0  0  0  0  0  0  0  0
   24.5890   14.7876   10.9245 O   0  0  0  0  0  0  0  0  0  0  0  0
   25.9380   12.6401   11.1702 C   0  0  1  0  0  0  0  0  0  0  0  0
   25.0133   12.1197   12.0723 O   0  0  0  0  0  0  0  0  0  0  0  0
   24.3894   15.9815   10.4800 C   0  0  1  0  0  0  0  0  0  0  0  0
   23.3324   16.8226   11.2546 C   0  0  2  0  0  0  0  0  0  0  0  0
   22.0923   16.6186   10.6542 O   0  0  0  0  0  0  0  0  0  0  0  0
   23.8634   18.1645   10.9626 C   0  0  1  0  0  0  0  0  0  0  0  0
   25.4208   18.0934   11.0172 C   0  0  2  0  0  0  0  0  0  0  0  0
   25.5844   16.8270   10.4273 O   0  0  0  0  0  0  0  0  0  0  0  0
   26.1094   18.3470   12.3590 C   0  0  0  0  0  0  0  0  0  0  0  0
   27.4874   18.1016   12.1497 O   0  0  0  0  0  0  0  0  0  0  0  0
   23.3834   19.8560    9.2504 C   0  0  2  0  0  0  0  0  0  0  0  0
   23.3471   18.5386    9.6062 O   0  0  0  0  0  0  0  0  0  0  0  0
   23.9508   20.0537    7.8755 C   0  0  1  0  0  0  0  0  0  0  0  0
   26.5198   22.4759   11.2127 N   0  0  0  0  0  0  0  0  0  0  0  0
   29.5301   10.3662   14.1411 O   0  0  0  0  0  0  0  0  0  0  0  0
   24.0105   21.5968    7.5511 C   0  0  2  0  0  0  0  0  0  0  0  0
   24.8377   22.4274    8.5925 C   0  0  1  0  0  0  0  0  0  0  0  0
   24.2675   22.2291    9.9044 C   0  0  1  0  0  0  0  0  0  0  0  0
   24.1985   20.7516   10.2408 O   0  0  0  0  0  0  0  0  0  0  0  0
   25.1043   23.0210   11.0025 C   0  0  0  0  0  0  0  0  0  0  0  0
   25.2633   19.5436    7.8171 N   0  0  0  0  0  0  0  0  0  0  0  0
   25.1085   17.9707    5.4056 O   0  0  0  0  0  0  0  0  0  0  0  0
   27.6984    9.0691   13.7913 C   0  0  0  0  0  0  0  0  0  0  0  0
   25.9164   22.0350    8.5929 O   0  0  0  0  0  0  0  0  0  0  0  0
   22.9372   22.0098    7.5758 O   0  0  0  0  0  0  0  0  0  0  0  0
   27.8551   10.9764   12.3990 C   0  0  0  0  0  0  0  0  0  0  0  0
   27.0803    9.8611   14.7329 C   0  0  0  0  0  0  0  0  0  0  0  0
   28.6342    9.8001   13.1870 C   0  0  1  0  0  0  0  0  0  0  0  0
   22.6226   17.0115    5.3712 F   0  0  0  0  0  0  0  0  0  0  0  0
  1  2  1  1  0  0  0
  1 10  1  0  0  0  0
  1  3  1  0  0  0  0
  3  4  1  1  0  0  0
  3  6  1  0  0  0  0
  5 46  2  0  0  0  0
  6 42  1  6  0  0  0
  6  8  1  0  0  0  0
  7 47  1  0  0  0  0
  8  9  1  0  0  0  0
  8 49  1  6  0  0  0
  9 10  1  0  0  0  0
  9 11  1  6  0  0  0
 11 12  1  0  0  0  0
 13 14  1  1  0  0  0
 13 15  1  0  0  0  0
 13 21  1  0  0  0  0
 14 46  1  0  0  0  0
 15 16  1  0  0  0  0
 16 17  1  6  0  0  0
 16 18  1  0  0  0  0
 18  2  1  6  0  0  0
 18 19  1  0  0  0  0
 19 20  1  1  0  0  0
 19 21  1  0  0  0  0
 21 22  1  1  0  0  0
 23 20  1  1  0  0  0
 23 24  1  0  0  0  0
 23 28  1  0  0  0  0
 24 25  1  6  0  0  0
 24 26  1  0  0  0  0
 26 27  1  0  0  0  0
 26 32  1  6  0  0  0
 27 28  1  0  0  0  0
 27 29  1  1  0  0  0
 29 30  1  0  0  0  0
 31 32  1  1  0  0  0
 31 33  1  0  0  0  0
 31 39  1  0  0  0  0
 33 36  1  0  0  0  0
 33 41  1  1  0  0  0
 34 40  1  0  0  0  0
 35 48  1  0  0  0  0
 36 37  1  0  0  0  0
 36 45  1  1  0  0  0
 37 38  1  0  0  0  0
 37 44  1  1  0  0  0
 38 39  1  0  0  0  0
 38 40  1  1  0  0  0
 43 47  1  0  0  0  0
 46 48  1  0  0  0  0
 48 43  1  1  0  0  0
M  END
>  <CHROM.1>
-138.16978308,39.85213062,63.75688999,92.26860926,32.07580730,158.25334575
162.49765564,174.77420837,132.75540224,-67.13133988,78.82954308,54.65796024
-20.39574881,25.20683712,16.14343324,9.66714646,0.77597080,1.13405847,-2.80677455

>  <Name>
ligand

>  <RI>
0

>  <Rbt.Current_Directory>
/home/itssahil/PROJECTS/Mol_Feturizer/New_Systems/rnas/4PDQ

>  <Rbt.Executable>
rbdock ($Id: //depot/dev/client3/rdock/2013.1/src/exe/rbdock.cxx#4 $)

>  <Rbt.Library>
libRbt.so (2013.1, Build901 2013/11/27)

>  <Rbt.Parameter_File>
/export/apps/rDock/src/rDock_2013.1_src/data/scripts/dock_solv.prm

>  <Rbt.Receptor>
prm/blind_docking_40.prm

>  <SCORE>
11.5637

>  <SCORE.INTER>
1.53371

>  <SCORE.INTER.CONST>
1

>  <SCORE.INTER.POLAR>
0

>  <SCORE.INTER.ROT>
13

>  <SCORE.INTER.SOLV>
27.0059

>  <SCORE.INTER.VDW>
-20.2462

>  <SCORE.INTER.norm>
0.0313002

>  <SCORE.INTRA>
9.10542

>  <SCORE.INTRA.DIHEDRAL>
-10.2717

>  <SCORE.INTRA.DIHEDRAL.0>
34.5115

>  <SCORE.INTRA.POLAR>
0

>  <SCORE.INTRA.POLAR.0>
0

>  <SCORE.INTRA.REPUL>
0.00699648

>  <SCORE.INTRA.REPUL.0>
0

>  <SCORE.INTRA.SOLV>
13.0318

>  <SCORE.INTRA.SOLV.lig_0>
-122.812

>  <SCORE.INTRA.VDW>
7.69035

>  <SCORE.INTRA.VDW.0>
-7.46208

>  <SCORE.INTRA.norm>
0.185825

>  <SCORE.RESTR>
0.924576

>  <SCORE.RESTR.CAVITY>
0.924576

>  <SCORE.RESTR.norm>
0.0188689

>  <SCORE.SYSTEM>
0

>  <SCORE.SYSTEM.CONST>
0

>  <SCORE.SYSTEM.DIHEDRAL>
0

>  <SCORE.SYSTEM.SOLV>
0

>  <SCORE.SYSTEM.norm>
0

>  <SCORE.heavy>
49

>  <SCORE.norm>
0.235994

>  <RMSD>
11.454

$$$$
ligand
 OpenBabel11021811513D
libRbt.so/2013.1/901 2013/11/27
 49 52  0  0  0  0  0  0  0  0999 V2000
   24.8987   14.7821    6.8461 C   0  0  2  0  0  0  0  0  0  0  0  0
   25.7342   15.2477    7.8645 O   0  0  0  0  0  0  0  0  0  0  0  0
   25.1282   15.6316    5.5412 C   0  0  2  0  0  0  0  0  0  0  0  0
   26.5860   15.5197    5.1235 N   0  0  0  0  0  0  0  0  0  0  0  0
   26.5134   10.0176   11.6152 O   0  0  0  0  0  0  0  0  0  0  0  0
   24.7207   17.1045    5.7787 C   0  0  2  0  0  0  0  0  0  0  0  0
   28.1279    8.3176   12.4568 N   0  0  0  0  0  0  0  0  0  0  0  0
   23.2507   17.1902    6.2186 C   0  0  2  0  0  0  0  0  0  0  0  0
   22.9799   16.3427    7.5331 C   0  0  2  0  0  0  0  0  0  0  0  0
   23.4464   14.9098    7.2694 O   0  0  0  0  0  0  0  0  0  0  0  0
   21.4788   16.3890    7.9409 C   0  0  0  0  0  0  0  0  0  0  0  0
   20.5968   15.9115    6.9369 N   0  0  0  0  0  0  0  0  0  0  0  0
   25.2863   12.6384   11.2987 C   0  0  2  0  0  0  0  0  0  0  0  0
   25.5607   12.0186   12.6282 N   0  0  0  0  0  0  0  0  0  0  0  0
   26.6905   12.7357   10.5273 C   0  0  0  0  0  0  0  0  0  0  0  0
   26.4883   13.3598    9.0963 C   0  0  2  0  0  0  0  0  0  0  0  0
   27.7712   13.4730    8.3869 N   0  0  0  0  0  0  0  0  0  0  0  0
   25.8738   14.7692    9.2104 C   0  0  2  0  0  0  0  0  0  0  0  0
   24.4879   14.7093    9.9711 C   0  0  2  0  0  0  0  0  0  0  0  0
   23.9827   16.0955   10.0207 O   0  0  0  0  0  0  0  0  0  0  0  0
   24.7328   14.1282   11.4556 C   0  0  1  0  0  0  0  0  0  0  0  0
   23.5042   14.0908   12.1106 O   0  0  0  0  0  0  0  0  0  0  0  0
   24.6137   17.1370   10.4450 C   0  0  1  0  0  0  0  0  0  0  0  0
   24.3786   17.5067   11.9392 C   0  0  2  0  0  0  0  0  0  0  0  0
   23.3049   18.3916   12.0025 O   0  0  0  0  0  0  0  0  0  0  0  0
   25.6586   18.1858   12.2008 C   0  0  1  0  0  0  0  0  0  0  0  0
   26.7850   17.4025   11.4586 C   0  0  2  0  0  0  0  0  0  0  0  0
   26.0693   17.0804   10.2913 O   0  0  0  0  0  0  0  0  0  0  0  0
   27.4833   16.2626   12.2016 C   0  0  0  0  0  0  0  0  0  0  0  0
   28.4148   15.7085   11.2918 O   0  0  0  0  0  0  0  0  0  0  0  0
   25.0362   19.7682   10.4311 C   0  0  2  0  0  0  0  0  0  0  0  0
   25.5030   19.5903   11.7015 O   0  0  0  0  0  0  0  0  0  0  0  0
   25.6965   20.9274    9.7444 C   0  0  1  0  0  0  0  0  0  0  0  0
   20.5768   19.0930    9.4611 N   0  0  0  0  0  0  0  0  0  0  0  0
   25.5193   10.7598   15.0234 O   0  0  0  0  0  0  0  0  0  0  0  0
   25.0749   21.1060    8.3050 C   0  0  2  0  0  0  0  0  0  0  0  0
   23.5198   21.3068    8.3114 C   0  0  1  0  0  0  0  0  0  0  0  0
   22.9070   20.1757    8.9676 C   0  0  1  0  0  0  0  0  0  0  0  0
   23.4883   19.9819   10.3553 O   0  0  0  0  0  0  0  0  0  0  0  0
   21.3275   20.3583    9.0362 C   0  0  0  0  0  0  0  0  0  0  0  0
   25.4660   22.1133   10.4702 N   0  0  0  0  0  0  0  0  0  0  0  0
   24.8576   17.6906    4.8071 O   0  0  0  0  0  0  0  0  0  0  0  0
   26.2449    8.8129   14.1053 C   0  0  0  0  0  0  0  0  0  0  0  0
   23.2806   22.2575    8.9086 O   0  0  0  0  0  0  0  0  0  0  0  0
   25.2824   20.1474    7.7039 O   0  0  0  0  0  0  0  0  0  0  0  0
   26.1945   10.6595   12.6261 C   0  0  0  0  0  0  0  0  0  0  0  0
   27.4111    8.2189   13.6772 C   0  0  0  0  0  0  0  0  0  0  0  0
   26.4390   10.1308   14.1334 C   0  0  1  0  0  0  0  0  0  0  0  0
   22.4163   16.6971    5.1998 F   0  0  0  0  0  0  0  0  0  0  0  0
  1  2  1  1  0  0  0
  1 10  1  0  0  0  0
  1  3  1  0  0  0  0
  3  4  1  1  0  0  0
  3  6  1  0  0  0  0
  5 46  2  0  0  0  0
  6 42  1  6  0  0  0
  6  8  1  0  0  0  0
  7 47  1  0  0  0  0
  8  9  1  0  0  0  0
  8 49  1  6  0  0  0
  9 10  1  0  0  0  0
  9 11  1  6  0  0  0
 11 12  1  0  0  0  0
 13 14  1  1  0  0  0
 13 15  1  0  0  0  0
 13 21  1  0  0  0  0
 14 46  1  0  0  0  0
 15 16  1  0  0  0  0
 16 17  1  1  0  0  0
 16 18  1  0  0  0  0
 18  2  1  6  0  0  0
 18 19  1  0  0  0  0
 19 20  1  1  0  0  0
 19 21  1  0  0  0  0
 21 22  1  1  0  0  0
 23 20  1  1  0  0  0
 23 24  1  0  0  0  0
 23 28  1  0  0  0  0
 24 25  1  6  0  0  0
 24 26  1  0  0  0  0
 26 27  1  0  0  0  0
 26 32  1  6  0  0  0
 27 28  1  0  0  0  0
 27 29  1  1  0  0  0
 29 30  1  0  0  0  0
 31 32  1  1  0  0  0
 31 33  1  0  0  0  0
 31 39  1  0  0  0  0
 33 36  1  0  0  0  0
 33 41  1  1  0  0  0
 34 40  1  0  0  0  0
 35 48  1  0  0  0  0
 36 37  1  0  0  0  0
 36 45  1  6  0  0  0
 37 38  1  0  0  0  0
 37 44  1  1  0  0  0
 38 39  1  0  0  0  0
 38 40  1  1  0  0  0
 43 47  1  0  0  0  0
 46 48  1  0  0  0  0
 48 43  1  6  0  0  0
M  END
>  <CHROM.1>
-179.31024626,66.87100325,58.25670226,-58.30879253,-52.19802942,-93.64953123
-50.88954353,178.17091032,-143.09956687,168.52758853,-62.26378166,-157.38507998
-155.91873349,24.89334490,15.99936624,9.78872426,2.67196127,-1.25554664,0.63243953

>  <Name>
ligand

>  <RI>
0

>  <Rbt.Current_Directory>
/home/itssahil/PROJECTS/Mol_Feturizer/New_Systems/rnas/4PDQ

>  <Rbt.Executable>
rbdock ($Id: //depot/dev/client3/rdock/2013.1/src/exe/rbdock.cxx#4 $)

>  <Rbt.Library>
libRbt.so (2013.1, Build901 2013/11/27)

>  <Rbt.Parameter_File>
/export/apps/rDock/src/rDock_2013.1_src/data/scripts/dock_solv.prm

>  <Rbt.Receptor>
prm/blind_docking_40.prm

>  <SCORE>
10.9845

>  <SCORE.INTER>
8.66563

>  <SCORE.INTER.CONST>
1

>  <SCORE.INTER.POLAR>
0

>  <SCORE.INTER.ROT>
13

>  <SCORE.INTER.SOLV>
35.6536

>  <SCORE.INTER.VDW>
-18.3741

>  <SCORE.INTER.norm>
0.17685

>  <SCORE.INTRA>
1.07803

>  <SCORE.INTRA.DIHEDRAL>
-20.4159

>  <SCORE.INTRA.DIHEDRAL.0>
34.5115

>  <SCORE.INTRA.POLAR>
0

>  <SCORE.INTRA.POLAR.0>
0

>  <SCORE.INTRA.REPUL>
0

>  <SCORE.INTRA.REPUL.0>
0

>  <SCORE.INTRA.SOLV>
5.02884

>  <SCORE.INTRA.SOLV.lig_0>
-122.812

>  <SCORE.INTRA.VDW>
8.77155

>  <SCORE.INTRA.VDW.0>
-7.46208

>  <SCORE.INTRA.norm>
0.0220007

>  <SCORE.RESTR>
1.24086

>  <SCORE.RESTR.CAVITY>
1.24086

>  <SCORE.RESTR.norm>
0.0253237

>  <SCORE.SYSTEM>
0

>  <SCORE.SYSTEM.CONST>
0

>  <SCORE.SYSTEM.DIHEDRAL>
0

>  <SCORE.SYSTEM.SOLV>
0

>  <SCORE.SYSTEM.norm>
0

>  <SCORE.heavy>
49

>  <SCORE.norm>
0.224174

>  <RMSD>
11.470

$$$$
ligand
 OpenBabel11021811513D
libRbt.so/2013.1/901 2013/11/27
 49 52  0  0  0  0  0  0  0  0999 V2000
   25.1971   18.2659   11.7537 C   0  0  2  0  0  0  0  0  0  0  0  0
   25.7128   17.0213   11.3836 O   0  0  0  0  0  0  0  0  0  0  0  0
   23.6386   18.1590   11.9457 C   0  0  2  0  0  0  0  0  0  0  0  0
   23.3383   17.1214   13.0161 N   0  0  0  0  0  0  0  0  0  0  0  0
   28.6340   11.1464   13.0169 O   0  0  0  0  0  0  0  0  0  0  0  0
   22.9540   17.8018   10.6057 C   0  0  2  0  0  0  0  0  0  0  0  0
   26.2909    7.7199   11.1734 N   0  0  0  0  0  0  0  0  0  0  0  0
   23.2880   18.8530    9.5357 C   0  0  2  0  0  0  0  0  0  0  0  0
   24.8540   18.9907    9.3152 C   0  0  2  0  0  0  0  0  0  0  0  0
   25.4923   19.2902   10.6728 O   0  0  0  0  0  0  0  0  0  0  0  0
   25.1867   20.0956    8.2710 C   0  0  0  0  0  0  0  0  0  0  0  0
   24.3877   20.0368    7.0996 N   0  0  0  0  0  0  0  0  0  0  0  0
   26.3588   12.8584   12.4112 C   0  0  2  0  0  0  0  0  0  0  0  0
   26.2369   11.5650   13.1457 N   0  0  0  0  0  0  0  0  0  0  0  0
   26.5488   14.0087   13.5144 C   0  0  0  0  0  0  0  0  0  0  0  0
   26.7109   15.4126   12.8210 C   0  0  2  0  0  0  0  0  0  0  0  0
   26.8657   16.4780   13.8225 N   0  0  0  0  0  0  0  0  0  0  0  0
   25.4693   15.7317   11.9645 C   0  0  2  0  0  0  0  0  0  0  0  0
   25.2505   14.6128   10.8677 C   0  0  2  0  0  0  0  0  0  0  0  0
   24.0526   15.0117   10.1027 O   0  0  0  0  0  0  0  0  0  0  0  0
   25.0220   13.1970   11.6056 C   0  0  1  0  0  0  0  0  0  0  0  0
   24.8237   12.2282   10.6249 O   0  0  0  0  0  0  0  0  0  0  0  0
   23.9176   15.0200    8.8203 C   0  0  1  0  0  0  0  0  0  0  0  0
   22.9018   13.9914    8.2416 C   0  0  2  0  0  0  0  0  0  0  0  0
   23.5928   12.8178    7.9501 O   0  0  0  0  0  0  0  0  0  0  0  0
   22.5263   14.7191    7.0179 C   0  0  1  0  0  0  0  0  0  0  0  0
   22.4292   16.2368    7.3654 C   0  0  2  0  0  0  0  0  0  0  0  0
   23.5195   16.3096    8.2511 O   0  0  0  0  0  0  0  0  0  0  0  0
   21.0845   16.7837    7.8467 C   0  0  0  0  0  0  0  0  0  0  0  0
   20.7134   15.9969    8.9629 O   0  0  0  0  0  0  0  0  0  0  0  0
   24.8372   14.9360    6.2203 C   0  0  2  0  0  0  0  0  0  0  0  0
   23.5906   14.4229    6.0051 O   0  0  0  0  0  0  0  0  0  0  0  0
   25.6346   15.0314    4.9529 C   0  0  1  0  0  0  0  0  0  0  0  0
   29.1626   14.2958    9.0815 N   0  0  0  0  0  0  0  0  0  0  0  0
   25.8576    9.4169   14.6473 O   0  0  0  0  0  0  0  0  0  0  0  0
   27.0763   15.5819    5.2821 C   0  0  2  0  0  0  0  0  0  0  0  0
   27.8537   14.7200    6.3363 C   0  0  1  0  0  0  0  0  0  0  0  0
   27.0722   14.6510    7.5487 C   0  0  1  0  0  0  0  0  0  0  0  0
   25.6794   14.1243    7.2590 O   0  0  0  0  0  0  0  0  0  0  0  0
   27.8046   13.7469    8.6346 C   0  0  0  0  0  0  0  0  0  0  0  0
   25.7761   13.7540    4.3744 N   0  0  0  0  0  0  0  0  0  0  0  0
   21.8222   17.7703   10.7620 O   0  0  0  0  0  0  0  0  0  0  0  0
   27.4323    8.4287   13.3421 C   0  0  0  0  0  0  0  0  0  0  0  0
   27.9795   13.6599    5.9144 O   0  0  0  0  0  0  0  0  0  0  0  0
   26.9635   16.6341    5.7332 O   0  0  0  0  0  0  0  0  0  0  0  0
   27.5020   10.7939   13.3775 C   0  0  0  0  0  0  0  0  0  0  0  0
   26.5237    8.5327   12.3127 C   0  0  0  0  0  0  0  0  0  0  0  0
   27.2090    9.4297   14.1927 C   0  0  1  0  0  0  0  0  0  0  0  0
   22.7885   20.1085    9.9251 F   0  0  0  0  0  0  0  0  0  0  0  0
  1  2  1  6  0  0  0
  1 10  1  0  0  0  0
  1  3  1  0  0  0  0
  3  4  1  1  0  0  0
  3  6  1  0  0  0  0
  5 46  2  0  0  0  0
  6 42  1  1  0  0  0
  6  8  1  0  0  0  0
  7 47  1  0  0  0  0
  8  9  1  0  0  0  0
  8 49  1  1  0  0  0
  9 10  1  0  0  0  0
  9 11  1  6  0  0  0
 11 12  1  0  0  0  0
 13 14  1  1  0  0  0
 13 15  1  0  0  0  0
 13 21  1  0  0  0  0
 14 46  1  0  0  0  0
 15 16  1  0  0  0  0
 16 17  1  1  0  0  0
 16 18  1  0  0  0  0
 18  2  1  6  0  0  0
 18 19  1  0  0  0  0
 19 20  1  1  0  0  0
 19 21  1  0  0  0  0
 21 22  1  6  0  0  0
 23 20  1  1  0  0  0
 23 24  1  0  0  0  0
 23 28  1  0  0  0  0
 24 25  1  6  0  0  0
 24 26  1  0  0  0  0
 26 27  1  0  0  0  0
 26 32  1  6  0  0  0
 27 28  1  0  0  0  0
 27 29  1  1  0  0  0
 29 30  1  0  0  0  0
 31 32  1  6  0  0  0
 31 33  1  0  0  0  0
 31 39  1  0  0  0  0
 33 36  1  0  0  0  0
 33 41  1  1  0  0  0
 34 40  1  0  0  0  0
 35 48  1  0  0  0  0
 36 37  1  0  0  0  0
 36 45  1  1  0  0  0
 37 38  1  0  0  0  0
 37 44  1  6  0  0  0
 38 39  1  0  0  0  0
 38 40  1  1  0  0  0
 43 47  1  0  0  0  0
 46 48  1  0  0  0  0
 48 43  1  6  0  0  0
M  END
>  <CHROM.1>
-47.76321458,-102.50313291,-45.93631483,-92.01050538,133.81685857,113.10658919
-68.52315343,55.32955282,-158.07600811,62.64824847,-177.95937495,56.03294716
170.53219004,25.18450770,14.87468969,9.76056294,2.51718407,1.15415659,-1.46585587

>  <Name>
ligand

>  <RI>
0

>  <Rbt.Current_Directory>
/home/itssahil/PROJECTS/Mol_Feturizer/New_Systems/rnas/4PDQ

>  <Rbt.Executable>
rbdock ($Id: //depot/dev/client3/rdock/2013.1/src/exe/rbdock.cxx#4 $)

>  <Rbt.Library>
libRbt.so (2013.1, Build901 2013/11/27)

>  <Rbt.Parameter_File>
/export/apps/rDock/src/rDock_2013.1_src/data/scripts/dock_solv.prm

>  <Rbt.Receptor>
prm/blind_docking_60.prm

>  <SCORE>
31.6886

>  <SCORE.INTER>
26.3512

>  <SCORE.INTER.CONST>
1

>  <SCORE.INTER.POLAR>
0

>  <SCORE.INTER.ROT>
13

>  <SCORE.INTER.SOLV>
36.968

>  <SCORE.INTER.VDW>
-7.02188

>  <SCORE.INTER.norm>
0.537779

>  <SCORE.INTRA>
4.94932

>  <SCORE.INTRA.DIHEDRAL>
-8.36777

>  <SCORE.INTRA.DIHEDRAL.0>
34.5115

>  <SCORE.INTRA.POLAR>
0

>  <SCORE.INTRA.POLAR.0>
0

>  <SCORE.INTRA.REPUL>
0

>  <SCORE.INTRA.REPUL.0>
0

>  <SCORE.INTRA.SOLV>
4.82127

>  <SCORE.INTRA.SOLV.lig_0>
-122.812

>  <SCORE.INTRA.VDW>
6.72257

>  <SCORE.INTRA.VDW.0>
-7.46208

>  <SCORE.INTRA.norm>
0.101007

>  <SCORE.RESTR>
0.388079

>  <SCORE.RESTR.CAVITY>
0.388079

>  <SCORE.RESTR.norm>
0.00791998

>  <SCORE.SYSTEM>
0

>  <SCORE.SYSTEM.CONST>
0

>  <SCORE.SYSTEM.DIHEDRAL>
0

>  <SCORE.SYSTEM.SOLV>
0

>  <SCORE.SYSTEM.norm>
0

>  <SCORE.heavy>
49

>  <SCORE.norm>
0.646705

>  <RMSD>
11.487

$$$$
ligand
 OpenBabel11021811513D
libRbt.so/2013.1/901 2013/11/27
 49 52  0  0  0  0  0  0  0  0999 V2000
   25.7826   10.3166   12.8346 C   0  0  2  0  0  0  0  0  0  0  0  0
   26.9409   11.0875   12.7079 O   0  0  0  0  0  0  0  0  0  0  0  0
   26.0484    9.1167   13.8178 C   0  0  2  0  0  0  0  0  0  0  0  0
   26.4703    9.6657   15.1717 N   0  0  0  0  0  0  0  0  0  0  0  0
   23.8659   16.9350   10.9272 O   0  0  0  0  0  0  0  0  0  0  0  0
   27.1221    8.1692   13.2336 C   0  0  2  0  0  0  0  0  0  0  0  0
   24.2651   21.4627    9.7040 N   0  0  0  0  0  0  0  0  0  0  0  0
   26.6826    7.6436   11.8580 C   0  0  2  0  0  0  0  0  0  0  0  0
   26.4030    8.8272   10.8380 C   0  0  2  0  0  0  0  0  0  0  0  0
   25.3781    9.7644   11.4796 O   0  0  0  0  0  0  0  0  0  0  0  0
   25.9051    8.2897    9.4651 C   0  0  0  0  0  0  0  0  0  0  0  0
   24.7412    7.4826    9.5533 N   0  0  0  0  0  0  0  0  0  0  0  0
   25.8687   15.2600   12.2147 C   0  0  2  0  0  0  0  0  0  0  0  0
   26.0301   16.7319   12.0285 N   0  0  0  0  0  0  0  0  0  0  0  0
   26.9052   14.8149   13.3566 C   0  0  0  0  0  0  0  0  0  0  0  0
   26.7841   13.2703   13.6358 C   0  0  2  0  0  0  0  0  0  0  0  0
   27.7433   12.8463   14.6663 N   0  0  0  0  0  0  0  0  0  0  0  0
   27.0726   12.4710   12.3494 C   0  0  2  0  0  0  0  0  0  0  0  0
   26.0691   12.8895   11.2002 C   0  0  2  0  0  0  0  0  0  0  0  0
   26.4208   12.0691   10.0244 O   0  0  0  0  0  0  0  0  0  0  0  0
   26.2594   14.4605   10.8886 C   0  0  1  0  0  0  0  0  0  0  0  0
   25.3744   14.8071    9.8706 O   0  0  0  0  0  0  0  0  0  0  0  0
   25.8221   12.0523    8.8824 C   0  0  1  0  0  0  0  0  0  0  0  0
   26.2120   10.8816    7.9327 C   0  0  2  0  0  0  0  0  0  0  0  0
   27.2711   11.3064    7.1341 O   0  0  0  0  0  0  0  0  0  0  0  0
   24.9568   10.7922    7.1683 C   0  0  1  0  0  0  0  0  0  0  0  0
   23.7697   11.0173    8.1550 C   0  0  2  0  0  0  0  0  0  0  0  0
   24.3596   12.0133    8.9541 O   0  0  0  0  0  0  0  0  0  0  0  0
   23.1759    9.7980    8.8618 C   0  0  0  0  0  0  0  0  0  0  0  0
   22.2018   10.2958    9.7595 O   0  0  0  0  0  0  0  0  0  0  0  0
   25.1567   13.1449    6.4986 C   0  0  2  0  0  0  0  0  0  0  0  0
   25.0332   11.8441    6.1034 O   0  0  0  0  0  0  0  0  0  0  0  0
   24.6561   14.1011    5.4565 C   0  0  1  0  0  0  0  0  0  0  0  0
   28.9412   14.2489    8.6664 N   0  0  0  0  0  0  0  0  0  0  0  0
   26.3135   19.3781   12.0852 O   0  0  0  0  0  0  0  0  0  0  0  0
   24.8756   15.5817    5.9564 C   0  0  2  0  0  0  0  0  0  0  0  0
   26.3673   15.9123    6.3092 C   0  0  1  0  0  0  0  0  0  0  0  0
   26.8228   14.9864    7.3195 C   0  0  1  0  0  0  0  0  0  0  0  0
   26.6221   13.5538    6.8629 O   0  0  0  0  0  0  0  0  0  0  0  0
   28.3497   15.2576    7.6776 C   0  0  0  0  0  0  0  0  0  0  0  0
   25.3798   13.9323    4.2589 N   0  0  0  0  0  0  0  0  0  0  0  0
   27.2675    7.2866   13.9450 O   0  0  0  0  0  0  0  0  0  0  0  0
   25.5387   19.2662    9.9529 C   0  0  0  0  0  0  0  0  0  0  0  0
   27.0020   15.7720    5.3631 O   0  0  0  0  0  0  0  0  0  0  0  0
   24.2670   15.7278    6.9215 O   0  0  0  0  0  0  0  0  0  0  0  0
   24.9107   17.4564   11.3423 C   0  0  0  0  0  0  0  0  0  0  0  0
   25.4034   20.6160    9.7164 C   0  0  0  0  0  0  0  0  0  0  0  0
   25.2264   19.0371   11.2277 C   0  0  1  0  0  0  0  0  0  0  0  0
   25.5029    6.8895   11.9880 F   0  0  0  0  0  0  0  0  0  0  0  0
  1  2  1  6  0  0  0
  1 10  1  0  0  0  0
  1  3  1  0  0  0  0
  3  4  1  1  0  0  0
  3  6  1  0  0  0  0
  5 46  2  0  0  0  0
  6 42  1  1  0  0  0
  6  8  1  0  0  0  0
  7 47  1  0  0  0  0
  8  9  1  0  0  0  0
  8 49  1  1  0  0  0
  9 10  1  0  0  0  0
  9 11  1  6  0  0  0
 11 12  1  0  0  0  0
 13 14  1  6  0  0  0
 13 15  1  0  0  0  0
 13 21  1  0  0  0  0
 14 46  1  0  0  0  0
 15 16  1  0  0  0  0
 16 17  1  1  0  0  0
 16 18  1  0  0  0  0
 18  2  1  1  0  0  0
 18 19  1  0  0  0  0
 19 20  1  6  0  0  0
 19 21  1  0  0  0  0
 21 22  1  6  0  0  0
 23 20  1  1  0  0  0
 23 24  1  0  0  0  0
 23 28  1  0  0  0  0
 24 25  1  6  0  0  0
 24 26  1  0  0  0  0
 26 27  1  0  0  0  0
 26 32  1  6  0  0  0
 27 28  1  0  0  0  0
 27 29  1  1  0  0  0
 29 30  1  0  0  0  0
 31 32  1  6  0  0  0
 31 33  1  0  0  0  0
 31 39  1  0  0  0  0
 33 36  1  0  0  0  0
 33 41  1  6  0  0  0
 34 40  1  0  0  0  0
 35 48  1  0  0  0  0
 36 37  1  0  0  0  0
 36 45  1  1  0  0  0
 37 38  1  0  0  0  0
 37 44  1  6  0  0  0
 38 39  1  0  0  0  0
 38 40  1  6  0  0  0
 43 47  1  0  0  0  0
 46 48  1  0  0  0  0
 48 43  1  6  0  0  0
M  END
>  <CHROM.1>
-155.10944655,80.93265284,56.71310871,-161.62224694,177.18103174,-167.41633907
-60.49791981,175.61717443,-155.95139627,-175.62872978,-66.48430252,-79.20478964
164.92305069,25.81630500,13.02852302,9.91726266,-1.26540822,-1.42676627,-0.02324995

>  <Name>
ligand

>  <RI>
0

>  <Rbt.Current_Directory>
/home/itssahil/PROJECTS/Mol_Feturizer/New_Systems/rnas/4PDQ

>  <Rbt.Executable>
rbdock ($Id: //depot/dev/client3/rdock/2013.1/src/exe/rbdock.cxx#4 $)

>  <Rbt.Library>
libRbt.so (2013.1, Build901 2013/11/27)

>  <Rbt.Parameter_File>
/export/apps/rDock/src/rDock_2013.1_src/data/scripts/dock_solv.prm

>  <Rbt.Receptor>
prm/blind_docking_100.prm

>  <SCORE>
12.0146

>  <SCORE.INTER>
3.86195

>  <SCORE.INTER.CONST>
1

>  <SCORE.INTER.POLAR>
0

>  <SCORE.INTER.ROT>
13

>  <SCORE.INTER.SOLV>
29.4992

>  <SCORE.INTER.VDW>
-19.5251

>  <SCORE.INTER.norm>
0.0788154

>  <SCORE.INTRA>
-2.59742

>  <SCORE.INTRA.DIHEDRAL>
-22.5398

>  <SCORE.INTRA.DIHEDRAL.0>
34.5115

>  <SCORE.INTRA.POLAR>
0

>  <SCORE.INTRA.POLAR.0>
0

>  <SCORE.INTRA.REPUL>
0.0889885

>  <SCORE.INTRA.REPUL.0>
0

>  <SCORE.INTRA.SOLV>
7.97174

>  <SCORE.INTRA.SOLV.lig_0>
-122.812

>  <SCORE.INTRA.VDW>
4.24167

>  <SCORE.INTRA.VDW.0>
-7.46208

>  <SCORE.INTRA.norm>
-0.0530085

>  <SCORE.RESTR>
10.7501

>  <SCORE.RESTR.CAVITY>
10.7501

>  <SCORE.RESTR.norm>
0.219389

>  <SCORE.SYSTEM>
0

>  <SCORE.SYSTEM.CONST>
0

>  <SCORE.SYSTEM.DIHEDRAL>
0

>  <SCORE.SYSTEM.SOLV>
0

>  <SCORE.SYSTEM.norm>
0

>  <SCORE.heavy>
49

>  <SCORE.norm>
0.245196

>  <RMSD>
11.493

$$$$
ligand
 OpenBabel11021811513D
libRbt.so/2013.1/901 2013/11/27
 49 52  0  0  0  0  0  0  0  0999 V2000
   27.1112   15.4642   12.5956 C   0  0  2  0  0  0  0  0  0  0  0  0
   26.1735   14.6577   13.2454 O   0  0  0  0  0  0  0  0  0  0  0  0
   27.5615   16.6306   13.5517 C   0  0  2  0  0  0  0  0  0  0  0  0
   28.1601   16.0354   14.8165 N   0  0  0  0  0  0  0  0  0  0  0  0
   28.2579    8.7149   10.4933 O   0  0  0  0  0  0  0  0  0  0  0  0
   26.3642   17.5548   13.8748 C   0  0  2  0  0  0  0  0  0  0  0  0
   29.3877    4.3592   12.7556 N   0  0  0  0  0  0  0  0  0  0  0  0
   25.7643   18.1278   12.5812 C   0  0  2  0  0  0  0  0  0  0  0  0
   25.2996   16.9790   11.5892 C   0  0  2  0  0  0  0  0  0  0  0  0
   26.4989   16.0621   11.3417 O   0  0  0  0  0  0  0  0  0  0  0  0
   24.7447   17.5658   10.2590 C   0  0  0  0  0  0  0  0  0  0  0  0
   23.6185   18.4120   10.4313 N   0  0  0  0  0  0  0  0  0  0  0  0
   27.2050   10.5069   12.5316 C   0  0  2  0  0  0  0  0  0  0  0  0
   27.1871    9.0203   12.6608 N   0  0  0  0  0  0  0  0  0  0  0  0
   27.2263   11.1072   14.0201 C   0  0  0  0  0  0  0  0  0  0  0  0
   27.2709   12.6802   13.9769 C   0  0  2  0  0  0  0  0  0  0  0  0
   27.2703   13.2430   15.3352 N   0  0  0  0  0  0  0  0  0  0  0  0
   26.0409   13.2288   13.2265 C   0  0  2  0  0  0  0  0  0  0  0  0
   25.9875   12.6521   11.7542 C   0  0  2  0  0  0  0  0  0  0  0  0
   24.7887   13.2386   11.1231 O   0  0  0  0  0  0  0  0  0  0  0  0
   25.8762   11.0448   11.8277 C   0  0  1  0  0  0  0  0  0  0  0  0
   25.8226   10.5576   10.5240 O   0  0  0  0  0  0  0  0  0  0  0  0
   24.5793   13.4077    9.8620 C   0  0  1  0  0  0  0  0  0  0  0  0
   23.6328   12.3701    9.1896 C   0  0  2  0  0  0  0  0  0  0  0  0
   24.4130   11.3231    8.7048 O   0  0  0  0  0  0  0  0  0  0  0  0
   23.1202   13.2160    8.0988 C   0  0  1  0  0  0  0  0  0  0  0  0
   22.9012   14.6545    8.6611 C   0  0  2  0  0  0  0  0  0  0  0  0
   24.0294   14.7159    9.4989 O   0  0  0  0  0  0  0  0  0  0  0  0
   21.5413   14.9919    9.2741 C   0  0  0  0  0  0  0  0  0  0  0  0
   21.3746   14.1175   10.3742 O   0  0  0  0  0  0  0  0  0  0  0  0
   25.1918   14.0454    7.0773 C   0  0  2  0  0  0  0  0  0  0  0  0
   24.1470   13.1696    7.0081 O   0  0  0  0  0  0  0  0  0  0  0  0
   25.6326   14.5063    5.7192 C   0  0  1  0  0  0  0  0  0  0  0  0
   30.0665   14.5830    8.8891 N   0  0  0  0  0  0  0  0  0  0  0  0
   26.3802    6.1596   11.5032 O   0  0  0  0  0  0  0  0  0  0  0  0
   26.8713   15.4721    5.8710 C   0  0  2  0  0  0  0  0  0  0  0  0
   28.0813   14.8290    6.6333 C   0  0  1  0  0  0  0  0  0  0  0  0
   27.6354   14.4028    7.9391 C   0  0  1  0  0  0  0  0  0  0  0  0
   26.4432   13.4722    7.8207 O   0  0  0  0  0  0  0  0  0  0  0  0
   28.8233   13.7025    8.7337 C   0  0  0  0  0  0  0  0  0  0  0  0
   26.0326   13.4016    4.9408 N   0  0  0  0  0  0  0  0  0  0  0  0
   26.7248   18.4147   14.5357 O   0  0  0  0  0  0  0  0  0  0  0  0
   28.6017    6.0733   11.0373 C   0  0  0  0  0  0  0  0  0  0  0  0
   28.4333   13.9099    6.0425 O   0  0  0  0  0  0  0  0  0  0  0  0
   26.5399   16.3855    6.4867 O   0  0  0  0  0  0  0  0  0  0  0  0
   27.7639    8.2327   11.5224 C   0  0  0  0  0  0  0  0  0  0  0  0
   28.8453    4.8085   11.5240 C   0  0  0  0  0  0  0  0  0  0  0  0
   27.6839    6.6455   11.8154 C   0  0  1  0  0  0  0  0  0  0  0  0
   26.7204   18.9181   11.9189 F   0  0  0  0  0  0  0  0  0  0  0  0
  1  2  1  1  0  0  0
  1 10  1  0  0  0  0
  1  3  1  0  0  0  0
  3  4  1  1  0  0  0
  3  6  1  0  0  0  0
  5 46  2  0  0  0  0
  6 42  1  1  0  0  0
  6  8  1  0  0  0  0
  7 47  1  0  0  0  0
  8  9  1  0  0  0  0
  8 49  1  6  0  0  0
  9 10  1  0  0  0  0
  9 11  1  6  0  0  0
 11 12  1  0  0  0  0
 13 14  1  1  0  0  0
 13 15  1  0  0  0  0
 13 21  1  0  0  0  0
 14 46  1  0  0  0  0
 15 16  1  0  0  0  0
 16 17  1  1  0  0  0
 16 18  1  0  0  0  0
 18  2  1  6  0  0  0
 18 19  1  0  0  0  0
 19 20  1  1  0  0  0
 19 21  1  0  0  0  0
 21 22  1  6  0  0  0
 23 20  1  1  0  0  0
 23 24  1  0  0  0  0
 23 28  1  0  0  0  0
 24 25  1  6  0  0  0
 24 26  1  0  0  0  0
 26 27  1  0  0  0  0
 26 32  1  6  0  0  0
 27 28  1  0  0  0  0
 27 29  1  1  0  0  0
 29 30  1  0  0  0  0
 31 32  1  6  0  0  0
 31 33  1  0  0  0  0
 31 39  1  0  0  0  0
 33 36  1  0  0  0  0
 33 41  1  6  0  0  0
 34 40  1  0  0  0  0
 35 48  1  0  0  0  0
 36 37  1  0  0  0  0
 36 45  1  1  0  0  0
 37 38  1  0  0  0  0
 37 44  1  6  0  0  0
 38 39  1  0  0  0  0
 38 40  1  6  0  0  0
 43 47  1  0  0  0  0
 46 48  1  0  0  0  0
 48 43  1  6  0  0  0
M  END
>  <CHROM.1>
-139.98564899,68.24639019,-60.22554246,-153.46891342,155.77636050,102.23248998
-85.41608792,61.36484782,-145.46110247,56.71557802,-63.76315096,-78.04292814
-99.34626559,26.22662718,13.25419452,10.49987865,-2.48726628,1.27212583,-2.39993105

>  <Name>
ligand

>  <RI>
0

>  <Rbt.Current_Directory>
/home/itssahil/PROJECTS/Mol_Feturizer/New_Systems/rnas/4PDQ

>  <Rbt.Executable>
rbdock ($Id: //depot/dev/client3/rdock/2013.1/src/exe/rbdock.cxx#4 $)

>  <Rbt.Library>
libRbt.so (2013.1, Build901 2013/11/27)

>  <Rbt.Parameter_File>
/export/apps/rDock/src/rDock_2013.1_src/data/scripts/dock_solv.prm

>  <Rbt.Receptor>
prm/blind_docking_60.prm

>  <SCORE>
-7.59242

>  <SCORE.INTER>
-7.14838

>  <SCORE.INTER.CONST>
1

>  <SCORE.INTER.POLAR>
0

>  <SCORE.INTER.ROT>
13

>  <SCORE.INTER.SOLV>
33.095

>  <SCORE.INTER.VDW>
-28.0639

>  <SCORE.INTER.norm>
-0.145885

>  <SCORE.INTRA>
-1.09175

>  <SCORE.INTRA.DIHEDRAL>
-10.3843

>  <SCORE.INTRA.DIHEDRAL.0>
34.5115

>  <SCORE.INTRA.POLAR>
0

>  <SCORE.INTRA.POLAR.0>
0

>  <SCORE.INTRA.REPUL>
0

>  <SCORE.INTRA.REPUL.0>
0

>  <SCORE.INTRA.SOLV>
2.94033

>  <SCORE.INTRA.SOLV.lig_0>
-122.812

>  <SCORE.INTRA.VDW>
2.63024

>  <SCORE.INTRA.VDW.0>
-7.46208

>  <SCORE.INTRA.norm>
-0.0222805

>  <SCORE.RESTR>
0.647701

>  <SCORE.RESTR.CAVITY>
0.647701

>  <SCORE.RESTR.norm>
0.0132184

>  <SCORE.SYSTEM>
0

>  <SCORE.SYSTEM.CONST>
0

>  <SCORE.SYSTEM.DIHEDRAL>
0

>  <SCORE.SYSTEM.SOLV>
0

>  <SCORE.SYSTEM.norm>
0

>  <SCORE.heavy>
49

>  <SCORE.norm>
-0.154947

>  <RMSD>
11.493

$$$$
ligand
 OpenBabel11021811513D
libRbt.so/2013.1/901 2013/11/27
 49 52  0  0  0  0  0  0  0  0999 V2000
   26.8848   16.2332   11.2812 C   0  0  2  0  0  0  0  0  0  0  0  0
   26.1609   15.1408   11.7655 O   0  0  0  0  0  0  0  0  0  0  0  0
   27.5658   16.9924   12.4799 C   0  0  2  0  0  0  0  0  0  0  0  0
   28.4854   16.0332   13.2194 N   0  0  0  0  0  0  0  0  0  0  0  0
   27.4718    8.4395   11.7052 O   0  0  0  0  0  0  0  0  0  0  0  0
   26.4920   17.5843   13.4225 C   0  0  2  0  0  0  0  0  0  0  0  0
   25.5598    7.4134   13.4823 N   0  0  0  0  0  0  0  0  0  0  0  0
   25.5638   18.5338   12.6490 C   0  0  2  0  0  0  0  0  0  0  0  0
   24.8590   17.8028   11.4289 C   0  0  2  0  0  0  0  0  0  0  0  0
   25.9550   17.1892   10.5557 O   0  0  0  0  0  0  0  0  0  0  0  0
   23.9642   18.7840   10.6175 C   0  0  0  0  0  0  0  0  0  0  0  0
   24.6525   19.9327   10.1478 N   0  0  0  0  0  0  0  0  0  0  0  0
   25.8366   10.8307   11.4176 C   0  0  2  0  0  0  0  0  0  0  0  0
   25.4404    9.4984   10.8746 N   0  0  0  0  0  0  0  0  0  0  0  0
   24.5205   11.7496   11.4134 C   0  0  0  0  0  0  0  0  0  0  0  0
   24.8447   13.1751   11.9974 C   0  0  2  0  0  0  0  0  0  0  0  0
   23.6510   14.0334   11.9801 N   0  0  0  0  0  0  0  0  0  0  0  0
   25.9430   13.8587   11.1586 C   0  0  2  0  0  0  0  0  0  0  0  0
   27.2552   12.9752   11.1386 C   0  0  2  0  0  0  0  0  0  0  0  0
   28.2393   13.7141   10.3232 O   0  0  0  0  0  0  0  0  0  0  0  0
   26.9109   11.5453   10.4764 C   0  0  1  0  0  0  0  0  0  0  0  0
   28.0786   10.7866   10.4607 O   0  0  0  0  0  0  0  0  0  0  0  0
   28.0617   14.1968    9.1407 C   0  0  1  0  0  0  0  0  0  0  0  0
   29.3450   14.3422    8.2709 C   0  0  2  0  0  0  0  0  0  0  0  0
   29.8695   15.6150    8.4826 O   0  0  0  0  0  0  0  0  0  0  0  0
   28.7230   14.2250    6.9415 C   0  0  1  0  0  0  0  0  0  0  0  0
   27.6043   13.1408    7.0222 C   0  0  2  0  0  0  0  0  0  0  0  0
   27.1185   13.4494    8.3056 O   0  0  0  0  0  0  0  0  0  0  0  0
   27.9842   11.6873    6.7364 C   0  0  0  0  0  0  0  0  0  0  0  0
   28.3880   11.6424    5.3809 O   0  0  0  0  0  0  0  0  0  0  0  0
   26.8915   15.8586    6.9199 C   0  0  2  0  0  0  0  0  0  0  0  0
   28.1903   15.5840    6.6015 O   0  0  0  0  0  0  0  0  0  0  0  0
   25.9273   15.1745    5.9960 C   0  0  1  0  0  0  0  0  0  0  0  0
   23.5499   19.7923    7.7379 N   0  0  0  0  0  0  0  0  0  0  0  0
   26.8089    5.9664   10.5539 O   0  0  0  0  0  0  0  0  0  0  0  0
   24.4525   15.5754    6.3886 C   0  0  2  0  0  0  0  0  0  0  0  0
   24.1959   17.1223    6.3751 C   0  0  1  0  0  0  0  0  0  0  0  0
   25.1279   17.7566    7.2777 C   0  0  1  0  0  0  0  0  0  0  0  0
   26.5551   17.3863    6.9214 O   0  0  0  0  0  0  0  0  0  0  0  0
   24.9324   19.3360    7.2629 C   0  0  0  0  0  0  0  0  0  0  0  0
   26.1542   15.5891    4.6682 N   0  0  0  0  0  0  0  0  0  0  0  0
   27.0099   18.1639   14.2604 O   0  0  0  0  0  0  0  0  0  0  0  0
   24.7423    6.6683   11.1834 C   0  0  0  0  0  0  0  0  0  0  0  0
   24.3854   17.5108    5.3117 O   0  0  0  0  0  0  0  0  0  0  0  0
   24.2583   15.2171    7.4643 O   0  0  0  0  0  0  0  0  0  0  0  0
   26.3928    8.3624   11.1008 C   0  0  0  0  0  0  0  0  0  0  0  0
   25.1351    6.4913   12.4912 C   0  0  0  0  0  0  0  0  0  0  0  0
   25.8198    6.9900   10.4686 C   0  0  1  0  0  0  0  0  0  0  0  0
   26.3020   19.6182   12.1426 F   0  0  0  0  0  0  0  0  0  0  0  0
  1  2  1  1  0  0  0
  1 10  1  0  0  0  0
  1  3  1  0  0  0  0
  3  4  1  1  0  0  0
  3  6  1  0  0  0  0
  5 46  2  0  0  0  0
  6 42  1  1  0  0  0
  6  8  1  0  0  0  0
  7 47  1  0  0  0  0
  8  9  1  0  0  0  0
  8 49  1  6  0  0  0
  9 10  1  0  0  0  0
  9 11  1  6  0  0  0
 11 12  1  0  0  0  0
 13 14  1  6  0  0  0
 13 15  1  0  0  0  0
 13 21  1  0  0  0  0
 14 46  1  0  0  0  0
 15 16  1  0  0  0  0
 16 17  1  6  0  0  0
 16 18  1  0  0  0  0
 18  2  1  1  0  0  0
 18 19  1  0  0  0  0
 19 20  1  6  0  0  0
 19 21  1  0  0  0  0
 21 22  1  1  0  0  0
 23 20  1  1  0  0  0
 23 24  1  0  0  0  0
 23 28  1  0  0  0  0
 24 25  1  6  0  0  0
 24 26  1  0  0  0  0
 26 27  1  0  0  0  0
 26 32  1  1  0  0  0
 27 28  1  0  0  0  0
 27 29  1  1  0  0  0
 29 30  1  0  0  0  0
 31 32  1  6  0  0  0
 31 33  1  0  0  0  0
 31 39  1  0  0  0  0
 33 36  1  0  0  0  0
 33 41  1  6  0  0  0
 34 40  1  0  0  0  0
 35 48  1  0  0  0  0
 36 37  1  0  0  0  0
 36 45  1  1  0  0  0
 37 38  1  0  0  0  0
 37 44  1  6  0  0  0
 38 39  1  0  0  0  0
 38 40  1  6  0  0  0
 43 47  1  0  0  0  0
 46 48  1  0  0  0  0
 48 43  1  1  0  0  0
M  END
>  <CHROM.1>
-146.04384125,-168.52544095,55.55938152,-164.69544084,-51.18031265,-153.44514952
-92.91009707,-64.47380305,-74.33360469,62.20725011,71.05781943,59.04116892
-7.85644939,26.31687533,14.21066441,9.69602433,2.10768942,1.43893250,-0.74279300

>  <Name>
ligand

>  <RI>
0

>  <Rbt.Current_Directory>
/home/itssahil/PROJECTS/Mol_Feturizer/New_Systems/rnas/4PDQ

>  <Rbt.Executable>
rbdock ($Id: //depot/dev/client3/rdock/2013.1/src/exe/rbdock.cxx#4 $)

>  <Rbt.Library>
libRbt.so (2013.1, Build901 2013/11/27)

>  <Rbt.Parameter_File>
/export/apps/rDock/src/rDock_2013.1_src/data/scripts/dock_solv.prm

>  <Rbt.Receptor>
prm/blind_docking_100.prm

>  <SCORE>
31.7667

>  <SCORE.INTER>
23.395

>  <SCORE.INTER.CONST>
1

>  <SCORE.INTER.POLAR>
0

>  <SCORE.INTER.ROT>
13

>  <SCORE.INTER.SOLV>
34.4674

>  <SCORE.INTER.VDW>
-8.15915

>  <SCORE.INTER.norm>
0.477448

>  <SCORE.INTRA>
2.8087

>  <SCORE.INTRA.DIHEDRAL>
-19.3742

>  <SCORE.INTRA.DIHEDRAL.0>
34.5115

>  <SCORE.INTRA.POLAR>
0

>  <SCORE.INTRA.POLAR.0>
0

>  <SCORE.INTRA.REPUL>
0

>  <SCORE.INTRA.REPUL.0>
0

>  <SCORE.INTRA.SOLV>
10.2163

>  <SCORE.INTRA.SOLV.lig_0>
-122.812

>  <SCORE.INTRA.VDW>
7.38768

>  <SCORE.INTRA.VDW.0>
-7.46208

>  <SCORE.INTRA.norm>
0.0573204

>  <SCORE.RESTR>
5.56301

>  <SCORE.RESTR.CAVITY>
5.56301

>  <SCORE.RESTR.norm>
0.113531

>  <SCORE.SYSTEM>
0

>  <SCORE.SYSTEM.CONST>
0

>  <SCORE.SYSTEM.DIHEDRAL>
0

>  <SCORE.SYSTEM.SOLV>
0

>  <SCORE.SYSTEM.norm>
0

>  <SCORE.heavy>
49

>  <SCORE.norm>
0.6483

>  <RMSD>
11.514

$$$$
ligand
 OpenBabel11021811513D
libRbt.so/2013.1/901 2013/11/27
 49 52  0  0  0  0  0  0  0  0999 V2000
   27.3592   15.5645   12.4905 C   0  0  2  0  0  0  0  0  0  0  0  0
   26.3828   14.6049   12.7695 O   0  0  0  0  0  0  0  0  0  0  0  0
   27.7497   16.3245   13.8123 C   0  0  2  0  0  0  0  0  0  0  0  0
   28.2689   15.3205   14.8297 N   0  0  0  0  0  0  0  0  0  0  0  0
   27.7917    8.1425   13.2665 O   0  0  0  0  0  0  0  0  0  0  0  0
   26.5350   17.1082   14.3621 C   0  0  2  0  0  0  0  0  0  0  0  0
   29.0242    4.3210   11.1957 N   0  0  0  0  0  0  0  0  0  0  0  0
   26.0164   18.1011   13.3100 C   0  0  2  0  0  0  0  0  0  0  0  0
   25.6136   17.3703   11.9597 C   0  0  2  0  0  0  0  0  0  0  0  0
   26.8257   16.5676   11.4835 O   0  0  0  0  0  0  0  0  0  0  0  0
   25.1422   18.3877   10.8807 C   0  0  0  0  0  0  0  0  0  0  0  0
   24.6010   17.7806    9.7178 N   0  0  0  0  0  0  0  0  0  0  0  0
   27.1590   10.4858   11.6591 C   0  0  2  0  0  0  0  0  0  0  0  0
   26.8995    9.0880   11.2054 N   0  0  0  0  0  0  0  0  0  0  0  0
   26.0448   10.8365   12.7599 C   0  0  0  0  0  0  0  0  0  0  0  0
   26.2603   12.2943   13.3137 C   0  0  2  0  0  0  0  0  0  0  0  0
   25.2331   12.6351   14.3090 N   0  0  0  0  0  0  0  0  0  0  0  0
   26.1785   13.3194   12.1651 C   0  0  2  0  0  0  0  0  0  0  0  0
   27.2630   12.9992   11.0586 C   0  0  2  0  0  0  0  0  0  0  0  0
   27.1084   14.0329   10.0160 O   0  0  0  0  0  0  0  0  0  0  0  0
   26.9803   11.5276   10.4620 C   0  0  1  0  0  0  0  0  0  0  0  0
   27.9390   11.2681    9.4857 O   0  0  0  0  0  0  0  0  0  0  0  0
   26.0665   14.2520    9.2886 C   0  0  1  0  0  0  0  0  0  0  0  0
   25.1117   13.0376    9.0933 C   0  0  2  0  0  0  0  0  0  0  0  0
   25.5089   12.3547    7.9462 O   0  0  0  0  0  0  0  0  0  0  0  0
   23.8571   13.7777    8.8780 C   0  0  1  0  0  0  0  0  0  0  0  0
   23.8437   15.0028    9.8436 C   0  0  2  0  0  0  0  0  0  0  0  0
   25.2062   15.3412    9.7569 O   0  0  0  0  0  0  0  0  0  0  0  0
   23.2446   14.8174   11.2385 C   0  0  0  0  0  0  0  0  0  0  0  0
   22.0677   14.0508   11.0656 O   0  0  0  0  0  0  0  0  0  0  0  0
   24.7942   15.0587    7.0060 C   0  0  2  0  0  0  0  0  0  0  0  0
   23.8434   14.1775    7.4337 O   0  0  0  0  0  0  0  0  0  0  0  0
   24.7717   15.2340    5.5161 C   0  0  1  0  0  0  0  0  0  0  0  0
   29.1551   13.7143    6.9634 N   0  0  0  0  0  0  0  0  0  0  0  0
   25.5569    6.4959   11.1433 O   0  0  0  0  0  0  0  0  0  0  0  0
   25.9252   16.2221    5.0881 C   0  0  2  0  0  0  0  0  0  0  0  0
   27.3517   15.7614    5.5481 C   0  0  1  0  0  0  0  0  0  0  0  0
   27.3511   15.6092    6.9842 C   0  0  1  0  0  0  0  0  0  0  0  0
   26.2493   14.6629    7.4222 O   0  0  0  0  0  0  0  0  0  0  0  0
   28.7705   15.0990    7.4923 C   0  0  0  0  0  0  0  0  0  0  0  0
   24.9983   13.9965    4.8809 N   0  0  0  0  0  0  0  0  0  0  0  0
   26.8542   17.6828   15.2970 O   0  0  0  0  0  0  0  0  0  0  0  0
   27.7198    6.3856   10.4580 C   0  0  0  0  0  0  0  0  0  0  0  0
   27.5756   14.7438    5.0666 O   0  0  0  0  0  0  0  0  0  0  0  0
   25.7288   17.2396    5.5876 O   0  0  0  0  0  0  0  0  0  0  0  0
   27.2851    7.9859   12.1464 C   0  0  0  0  0  0  0  0  0  0  0  0
   28.8375    5.6849   10.8529 C   0  0  0  0  0  0  0  0  0  0  0  0
   26.9313    6.5384   11.5211 C   0  0  1  0  0  0  0  0  0  0  0  0
   27.0118   19.0494   13.0148 F   0  0  0  0  0  0  0  0  0  0  0  0
  1  2  1  1  0  0  0
  1 10  1  0  0  0  0
  1  3  1  0  0  0  0
  3  4  1  1  0  0  0
  3  6  1  0  0  0  0
  5 46  2  0  0  0  0
  6 42  1  1  0  0  0
  6  8  1  0  0  0  0
  7 47  1  0  0  0  0
  8  9  1  0  0  0  0
  8 49  1  6  0  0  0
  9 10  1  0  0  0  0
  9 11  1  6  0  0  0
 11 12  1  0  0  0  0
 13 14  1  6  0  0  0
 13 15  1  0  0  0  0
 13 21  1  0  0  0  0
 14 46  1  0  0  0  0
 15 16  1  0  0  0  0
 16 17  1  1  0  0  0
 16 18  1  0  0  0  0
 18  2  1  1  0  0  0
 18 19  1  0  0  0  0
 19 20  1  6  0  0  0
 19 21  1  0  0  0  0
 21 22  1  6  0  0  0
 23 20  1  1  0  0  0
 23 24  1  0  0  0  0
 23 28  1  0  0  0  0
 24 25  1  6  0  0  0
 24 26  1  0  0  0  0
 26 27  1  0  0  0  0
 26 32  1  6  0  0  0
 27 28  1  0  0  0  0
 27 29  1  1  0  0  0
 29 30  1  0  0  0  0
 31 32  1  6  0  0  0
 31 33  1  0  0  0  0
 31 39  1  0  0  0  0
 33 36  1  0  0  0  0
 33 41  1  6  0  0  0
 34 40  1  0  0  0  0
 35 48  1  0  0  0  0
 36 37  1  0  0  0  0
 36 45  1  1  0  0  0
 37 38  1  0  0  0  0
 37 44  1  6  0  0  0
 38 39  1  0  0  0  0
 38 40  1  6  0  0  0
 43 47  1  0  0  0  0
 46 48  1  0  0  0  0
 48 43  1  6  0  0  0
M  END
>  <CHROM.1>
-146.44050401,121.99807573,-171.99389963,-74.79073826,-61.77449100,-24.55584074
-65.20893686,-42.24936143,172.73872383,-62.93298692,72.71696698,-145.56322510
124.97425743,26.32221669,13.55105020,10.26627111,-2.87689462,1.40348286,-2.04249675

>  <Name>
ligand

>  <RI>
0

>  <Rbt.Current_Directory>
/home/itssahil/PROJECTS/Mol_Feturizer/New_Systems/rnas/4PDQ

>  <Rbt.Executable>
rbdock ($Id: //depot/dev/client3/rdock/2013.1/src/exe/rbdock.cxx#4 $)

>  <Rbt.Library>
libRbt.so (2013.1, Build901 2013/11/27)

>  <Rbt.Parameter_File>
/export/apps/rDock/src/rDock_2013.1_src/data/scripts/dock_solv.prm

>  <Rbt.Receptor>
prm/blind_docking_100.prm

>  <SCORE>
16.9166

>  <SCORE.INTER>
-5.0154

>  <SCORE.INTER.CONST>
1

>  <SCORE.INTER.POLAR>
0

>  <SCORE.INTER.ROT>
13

>  <SCORE.INTER.SOLV>
33.7958

>  <SCORE.INTER.VDW>
-26.8755

>  <SCORE.INTER.norm>
-0.102355

>  <SCORE.INTRA>
18.6518

>  <SCORE.INTRA.DIHEDRAL>
-11.9338

>  <SCORE.INTRA.DIHEDRAL.0>
34.5115

>  <SCORE.INTRA.POLAR>
0

>  <SCORE.INTRA.POLAR.0>
0

>  <SCORE.INTRA.REPUL>
0.0149285

>  <SCORE.INTRA.REPUL.0>
0

>  <SCORE.INTRA.SOLV>
7.82844

>  <SCORE.INTRA.SOLV.lig_0>
-122.812

>  <SCORE.INTRA.VDW>
20.6298

>  <SCORE.INTRA.VDW.0>
-7.46208

>  <SCORE.INTRA.norm>
0.380648

>  <SCORE.RESTR>
3.28021

>  <SCORE.RESTR.CAVITY>
3.28021

>  <SCORE.RESTR.norm>
0.0669431

>  <SCORE.SYSTEM>
0

>  <SCORE.SYSTEM.CONST>
0

>  <SCORE.SYSTEM.DIHEDRAL>
0

>  <SCORE.SYSTEM.SOLV>
0

>  <SCORE.SYSTEM.norm>
0

>  <SCORE.heavy>
49

>  <SCORE.norm>
0.345236

>  <RMSD>
11.516

$$$$
ligand
 OpenBabel11021811513D
libRbt.so/2013.1/901 2013/11/27
 49 52  0  0  0  0  0  0  0  0999 V2000
   25.8481    9.2311   11.7866 C   0  0  2  0  0  0  0  0  0  0  0  0
   26.6415   10.3647   11.5938 O   0  0  0  0  0  0  0  0  0  0  0  0
   26.0348    8.6958   13.2549 C   0  0  2  0  0  0  0  0  0  0  0  0
   25.6448    9.7891   14.2373 N   0  0  0  0  0  0  0  0  0  0  0  0
   25.7551   16.0325   10.7151 O   0  0  0  0  0  0  0  0  0  0  0  0
   27.4931    8.2312   13.4775 C   0  0  2  0  0  0  0  0  0  0  0  0
   24.4119   20.7721   10.0291 N   0  0  0  0  0  0  0  0  0  0  0  0
   27.8700    7.1417   12.4614 C   0  0  2  0  0  0  0  0  0  0  0  0
   27.6923    7.6449   10.9664 C   0  0  2  0  0  0  0  0  0  0  0  0
   26.2544    8.1429   10.8090 O   0  0  0  0  0  0  0  0  0  0  0  0
   28.0224    6.5192    9.9440 C   0  0  0  0  0  0  0  0  0  0  0  0
   28.1083    6.9711    8.6014 N   0  0  0  0  0  0  0  0  0  0  0  0
   24.0683   13.8544   11.6559 C   0  0  2  0  0  0  0  0  0  0  0  0
   23.6596   15.2885   11.7116 N   0  0  0  0  0  0  0  0  0  0  0  0
   25.1728   13.6362   12.8000 C   0  0  0  0  0  0  0  0  0  0  0  0
   25.6446   12.1346   12.8281 C   0  0  2  0  0  0  0  0  0  0  0  0
   26.6718   11.9263   13.8593 N   0  0  0  0  0  0  0  0  0  0  0  0
   26.2426   11.7372   11.4638 C   0  0  2  0  0  0  0  0  0  0  0  0
   25.1790   11.9447   10.3111 C   0  0  2  0  0  0  0  0  0  0  0  0
   25.8411   11.5324    9.0578 O   0  0  0  0  0  0  0  0  0  0  0  0
   24.7617   13.5019   10.2610 C   0  0  1  0  0  0  0  0  0  0  0  0
   23.8323   13.6650    9.2367 O   0  0  0  0  0  0  0  0  0  0  0  0
   26.1668   12.2899    8.0663 C   0  0  1  0  0  0  0  0  0  0  0  0
   27.3688   11.7983    7.2073 C   0  0  2  0  0  0  0  0  0  0  0  0
   28.5333   12.3488    7.7371 O   0  0  0  0  0  0  0  0  0  0  0  0
   26.9998   12.4326    5.9308 C   0  0  1  0  0  0  0  0  0  0  0  0
   25.4526   12.3248    5.7638 C   0  0  2  0  0  0  0  0  0  0  0  0
   25.0906   12.5433    7.1054 O   0  0  0  0  0  0  0  0  0  0  0  0
   24.8851   11.0873    5.0670 C   0  0  0  0  0  0  0  0  0  0  0  0
   25.3877   11.1120    3.7443 O   0  0  0  0  0  0  0  0  0  0  0  0
   26.5856   14.8420    5.7143 C   0  0  2  0  0  0  0  0  0  0  0  0
   27.4773   13.8511    6.0087 O   0  0  0  0  0  0  0  0  0  0  0  0
   27.2455   16.1865    5.6250 C   0  0  1  0  0  0  0  0  0  0  0  0
   21.9696   16.7821    7.1538 N   0  0  0  0  0  0  0  0  0  0  0  0
   24.9288   18.6028   12.0892 O   0  0  0  0  0  0  0  0  0  0  0  0
   26.1528   17.2872    5.3341 C   0  0  2  0  0  0  0  0  0  0  0  0
   25.0023   17.3288    6.3987 C   0  0  1  0  0  0  0  0  0  0  0  0
   24.3770   16.0285    6.4594 C   0  0  1  0  0  0  0  0  0  0  0  0
   25.4077   14.9509    6.7380 O   0  0  0  0  0  0  0  0  0  0  0  0
   23.2288   16.0119    7.5614 C   0  0  0  0  0  0  0  0  0  0  0  0
   27.8676   16.5013    6.8498 N   0  0  0  0  0  0  0  0  0  0  0  0
   27.5928    7.8101   14.5353 O   0  0  0  0  0  0  0  0  0  0  0  0
   23.9629   18.2610   10.0619 C   0  0  0  0  0  0  0  0  0  0  0  0
   25.4650   17.5669    7.4218 O   0  0  0  0  0  0  0  0  0  0  0  0
   25.6600   17.0444    4.3235 O   0  0  0  0  0  0  0  0  0  0  0  0
   24.6417   16.2953   11.1914 C   0  0  0  0  0  0  0  0  0  0  0  0
   23.6267   19.5947   10.1281 C   0  0  0  0  0  0  0  0  0  0  0  0
   24.0516   17.7952   11.3071 C   0  0  1  0  0  0  0  0  0  0  0  0
   27.0516    6.0129   12.6437 F   0  0  0  0  0  0  0  0  0  0  0  0
  1  2  1  1  0  0  0
  1 10  1  0  0  0  0
  1  3  1  0  0  0  0
  3  4  1  1  0  0  0
  3  6  1  0  0  0  0
  5 46  2  0  0  0  0
  6 42  1  1  0  0  0
  6  8  1  0  0  0  0
  7 47  1  0  0  0  0
  8  9  1  0  0  0  0
  8 49  1  1  0  0  0
  9 10  1  0  0  0  0
  9 11  1  6  0  0  0
 11 12  1  0  0  0  0
 13 14  1  6  0  0  0
 13 15  1  0  0  0  0
 13 21  1  0  0  0  0
 14 46  1  0  0  0  0
 15 16  1  0  0  0  0
 16 17  1  1  0  0  0
 16 18  1  0  0  0  0
 18  2  1  1  0  0  0
 18 19  1  0  0  0  0
 19 20  1  6  0  0  0
 19 21  1  0  0  0  0
 21 22  1  6  0  0  0
 23 20  1  1  0  0  0
 23 24  1  0  0  0  0
 23 28  1  0  0  0  0
 24 25  1  1  0  0  0
 24 26  1  0  0  0  0
 26 27  1  0  0  0  0
 26 32  1  1  0  0  0
 27 28  1  0  0  0  0
 27 29  1  1  0  0  0
 29 30  1  0  0  0  0
 31 32  1  1  0  0  0
 31 33  1  0  0  0  0
 31 39  1  0  0  0  0
 33 36  1  0  0  0  0
 33 41  1  1  0  0  0
 34 40  1  0  0  0  0
 35 48  1  0  0  0  0
 36 37  1  0  0  0  0
 36 45  1  6  0  0  0
 37 38  1  0  0  0  0
 37 44  1  1  0  0  0
 38 39  1  0  0  0  0
 38 40  1  1  0  0  0
 43 47  1  0  0  0  0
 46 48  1  0  0  0  0
 48 43  1  6  0  0  0
M  END
>  <CHROM.1>
-108.34478161,65.78120753,-169.58304800,73.33061968,-112.93258453,153.11772413
-128.78873594,-62.86642271,-171.16204454,73.06091068,99.10588622,-52.99361022
-58.48072875,25.79023432,13.09117575,9.36302068,0.82712589,-1.26294650,1.97265612

>  <Name>
ligand

>  <RI>
0

>  <Rbt.Current_Directory>
/home/itssahil/PROJECTS/Mol_Feturizer/New_Systems/rnas/4PDQ

>  <Rbt.Executable>
rbdock ($Id: //depot/dev/client3/rdock/2013.1/src/exe/rbdock.cxx#4 $)

>  <Rbt.Library>
libRbt.so (2013.1, Build901 2013/11/27)

>  <Rbt.Parameter_File>
/export/apps/rDock/src/rDock_2013.1_src/data/scripts/dock_solv.prm

>  <Rbt.Receptor>
prm/blind_docking_60.prm

>  <SCORE>
14.102

>  <SCORE.INTER>
1.42426

>  <SCORE.INTER.CONST>
1

>  <SCORE.INTER.POLAR>
0

>  <SCORE.INTER.ROT>
13

>  <SCORE.INTER.SOLV>
23.8742

>  <SCORE.INTER.VDW>
-19.2752

>  <SCORE.INTER.norm>
0.0290666

>  <SCORE.INTRA>
7.64635

>  <SCORE.INTRA.DIHEDRAL>
-2.80511

>  <SCORE.INTRA.DIHEDRAL.0>
34.5115

>  <SCORE.INTRA.POLAR>
0

>  <SCORE.INTRA.POLAR.0>
0

>  <SCORE.INTRA.REPUL>
0.000761398

>  <SCORE.INTRA.REPUL.0>
0

>  <SCORE.INTRA.SOLV>
4.45357

>  <SCORE.INTRA.SOLV.lig_0>
-122.812

>  <SCORE.INTRA.VDW>
6.81831

>  <SCORE.INTRA.VDW.0>
-7.46208

>  <SCORE.INTRA.norm>
0.156048

>  <SCORE.RESTR>
5.03142

>  <SCORE.RESTR.CAVITY>
5.03142

>  <SCORE.RESTR.norm>
0.102682

>  <SCORE.SYSTEM>
0

>  <SCORE.SYSTEM.CONST>
0

>  <SCORE.SYSTEM.DIHEDRAL>
0

>  <SCORE.SYSTEM.SOLV>
0

>  <SCORE.SYSTEM.norm>
0

>  <SCORE.heavy>
49

>  <SCORE.norm>
0.287797

>  <RMSD>
11.536

$$$$
ligand
 OpenBabel11021811513D
libRbt.so/2013.1/901 2013/11/27
 49 52  0  0  0  0  0  0  0  0999 V2000
   22.8730   16.5732    8.7499 C   0  0  2  0  0  0  0  0  0  0  0  0
   22.9495   15.1782    8.7430 O   0  0  0  0  0  0  0  0  0  0  0  0
   21.7961   17.0509    7.7062 C   0  0  2  0  0  0  0  0  0  0  0  0
   20.4490   16.4446    8.0670 N   0  0  0  0  0  0  0  0  0  0  0  0
   27.6372   12.2724   10.4047 O   0  0  0  0  0  0  0  0  0  0  0  0
   22.2250   16.6604    6.2725 C   0  0  2  0  0  0  0  0  0  0  0  0
   26.9743    8.4342   13.4584 N   0  0  0  0  0  0  0  0  0  0  0  0
   23.5965   17.2677    5.9386 C   0  0  2  0  0  0  0  0  0  0  0  0
   24.7102   16.8092    6.9726 C   0  0  2  0  0  0  0  0  0  0  0  0
   24.2196   17.1669    8.3768 O   0  0  0  0  0  0  0  0  0  0  0  0
   26.0834   17.4718    6.6610 C   0  0  0  0  0  0  0  0  0  0  0  0
   26.6218   17.1093    5.3990 N   0  0  0  0  0  0  0  0  0  0  0  0
   24.7905   11.6728   10.5112 C   0  0  2  0  0  0  0  0  0  0  0  0
   25.8483   10.6907   10.8901 N   0  0  0  0  0  0  0  0  0  0  0  0
   24.9888   11.9981    8.9519 C   0  0  0  0  0  0  0  0  0  0  0  0
   23.8921   13.0145    8.4596 C   0  0  2  0  0  0  0  0  0  0  0  0
   24.0754   13.3362    7.0367 N   0  0  0  0  0  0  0  0  0  0  0  0
   23.9788   14.3257    9.2661 C   0  0  2  0  0  0  0  0  0  0  0  0
   23.7914   14.0394   10.8107 C   0  0  2  0  0  0  0  0  0  0  0  0
   23.8827   15.3479   11.4882 O   0  0  0  0  0  0  0  0  0  0  0  0
   24.9648   13.0486   11.3034 C   0  0  1  0  0  0  0  0  0  0  0  0
   24.7871   12.8156   12.6649 O   0  0  0  0  0  0  0  0  0  0  0  0
   24.6569   16.3310   11.1767 C   0  0  1  0  0  0  0  0  0  0  0  0
   24.2420   17.7220   11.7403 C   0  0  2  0  0  0  0  0  0  0  0  0
   23.4241   18.3437   10.7999 O   0  0  0  0  0  0  0  0  0  0  0  0
   25.5760   18.3428   11.7953 C   0  0  1  0  0  0  0  0  0  0  0  0
   26.5967   17.2608   12.2654 C   0  0  2  0  0  0  0  0  0  0  0  0
   26.0569   16.1619   11.5729 O   0  0  0  0  0  0  0  0  0  0  0  0
   26.8434   17.1034   13.7665 C   0  0  0  0  0  0  0  0  0  0  0  0
   25.7786   17.7727   14.4154 O   0  0  0  0  0  0  0  0  0  0  0  0
   25.0485   19.8216    9.9090 C   0  0  2  0  0  0  0  0  0  0  0  0
   25.8642   18.8511   10.4152 O   0  0  0  0  0  0  0  0  0  0  0  0
   25.2341   20.0004    8.4310 C   0  0  1  0  0  0  0  0  0  0  0  0
   24.1854   23.6481   12.3351 N   0  0  0  0  0  0  0  0  0  0  0  0
   29.4848   10.0489   10.4514 O   0  0  0  0  0  0  0  0  0  0  0  0
   24.3014   21.1679    7.9240 C   0  0  2  0  0  0  0  0  0  0  0  0
   24.5435   22.5315    8.6594 C   0  0  1  0  0  0  0  0  0  0  0  0
   24.3498   22.3365   10.0771 C   0  0  1  0  0  0  0  0  0  0  0  0
   25.2362   21.2174   10.5901 O   0  0  0  0  0  0  0  0  0  0  0  0
   24.6289   23.6881   10.8699 C   0  0  0  0  0  0  0  0  0  0  0  0
   26.5692   20.3550    8.1515 N   0  0  0  0  0  0  0  0  0  0  0  0
   21.4488   17.0532    5.5312 O   0  0  0  0  0  0  0  0  0  0  0  0
   28.5602   10.1990   12.5208 C   0  0  0  0  0  0  0  0  0  0  0  0
   25.6292   22.8546    8.4735 O   0  0  0  0  0  0  0  0  0  0  0  0
   23.2098   20.8696    8.1306 O   0  0  0  0  0  0  0  0  0  0  0  0
   27.2718   11.1485   10.7775 C   0  0  0  0  0  0  0  0  0  0  0  0
   27.4931    9.7397   13.2599 C   0  0  0  0  0  0  0  0  0  0  0  0
   28.2941    9.9829   11.2332 C   0  0  1  0  0  0  0  0  0  0  0  0
   23.5196   18.6714    5.9715 F   0  0  0  0  0  0  0  0  0  0  0  0
  1  2  1  6  0  0  0
  1 10  1  0  0  0  0
  1  3  1  0  0  0  0
  3  4  1  1  0  0  0
  3  6  1  0  0  0  0
  5 46  2  0  0  0  0
  6 42  1  6  0  0  0
  6  8  1  0  0  0  0
  7 47  1  0  0  0  0
  8  9  1  0  0  0  0
  8 49  1  1  0  0  0
  9 10  1  0  0  0  0
  9 11  1  6  0  0  0
 11 12  1  0  0  0  0
 13 14  1  1  0  0  0
 13 15  1  0  0  0  0
 13 21  1  0  0  0  0
 14 46  1  0  0  0  0
 15 16  1  0  0  0  0
 16 17  1  6  0  0  0
 16 18  1  0  0  0  0
 18  2  1  6  0  0  0
 18 19  1  0  0  0  0
 19 20  1  1  0  0  0
 19 21  1  0  0  0  0
 21 22  1  1  0  0  0
 23 20  1  1  0  0  0
 23 24  1  0  0  0  0
 23 28  1  0  0  0  0
 24 25  1  6  0  0  0
 24 26  1  0  0  0  0
 26 27  1  0  0  0  0
 26 32  1  6  0  0  0
 27 28  1  0  0  0  0
 27 29  1  1  0  0  0
 29 30  1  0  0  0  0
 31 32  1  1  0  0  0
 31 33  1  0  0  0  0
 31 39  1  0  0  0  0
 33 36  1  0  0  0  0
 33 41  1  1  0  0  0
 34 40  1  0  0  0  0
 35 48  1  0  0  0  0
 36 37  1  0  0  0  0
 36 45  1  1  0  0  0
 37 38  1  0  0  0  0
 37 44  1  1  0  0  0
 38 39  1  0  0  0  0
 38 40  1  1  0  0  0
 43 47  1  0  0  0  0
 46 48  1  0  0  0  0
 48 43  1  1  0  0  0
M  END
>  <CHROM.1>
163.34251822,-154.86881044,-62.95747839,63.19539130,-36.80768084,161.00519108
62.78685836,15.67912167,-166.24011983,168.66891232,65.59501777,-162.32415782
-35.11933457,24.96047363,16.40483203,9.77699598,2.07813461,-1.07002674,0.20319733

>  <Name>
ligand

>  <RI>
0

>  <Rbt.Current_Directory>
/home/itssahil/PROJECTS/Mol_Feturizer/New_Systems/rnas/4PDQ

>  <Rbt.Executable>
rbdock ($Id: //depot/dev/client3/rdock/2013.1/src/exe/rbdock.cxx#4 $)

>  <Rbt.Library>
libRbt.so (2013.1, Build901 2013/11/27)

>  <Rbt.Parameter_File>
/export/apps/rDock/src/rDock_2013.1_src/data/scripts/dock_solv.prm

>  <Rbt.Receptor>
prm/blind_docking_40.prm

>  <SCORE>
2.57904

>  <SCORE.INTER>
2.76336

>  <SCORE.INTER.CONST>
1

>  <SCORE.INTER.POLAR>
0

>  <SCORE.INTER.ROT>
13

>  <SCORE.INTER.SOLV>
37.2771

>  <SCORE.INTER.VDW>
-22.8501

>  <SCORE.INTER.norm>
0.0563951

>  <SCORE.INTRA>
-1.81684

>  <SCORE.INTRA.DIHEDRAL>
-17.653

>  <SCORE.INTRA.DIHEDRAL.0>
34.5115

>  <SCORE.INTRA.POLAR>
0

>  <SCORE.INTRA.POLAR.0>
0

>  <SCORE.INTRA.REPUL>
0.0140045

>  <SCORE.INTRA.REPUL.0>
0

>  <SCORE.INTRA.SOLV>
2.36881

>  <SCORE.INTRA.SOLV.lig_0>
-122.812

>  <SCORE.INTRA.VDW>
5.75521

>  <SCORE.INTRA.VDW.0>
-7.46208

>  <SCORE.INTRA.norm>
-0.0370784

>  <SCORE.RESTR>
1.63252

>  <SCORE.RESTR.CAVITY>
1.63252

>  <SCORE.RESTR.norm>
0.0333167

>  <SCORE.SYSTEM>
0

>  <SCORE.SYSTEM.CONST>
0

>  <SCORE.SYSTEM.DIHEDRAL>
0

>  <SCORE.SYSTEM.SOLV>
0

>  <SCORE.SYSTEM.norm>
0

>  <SCORE.heavy>
49

>  <SCORE.norm>
0.0526334

>  <RMSD>
11.541

$$$$
ligand
 OpenBabel11021811513D
libRbt.so/2013.1/901 2013/11/27
 49 52  0  0  0  0  0  0  0  0999 V2000
   27.4609   11.3282   13.0827 C   0  0  2  0  0  0  0  0  0  0  0  0
   26.3027   11.9013   12.5516 O   0  0  0  0  0  0  0  0  0  0  0  0
   27.3317    9.7597   13.0684 C   0  0  2  0  0  0  0  0  0  0  0  0
   27.1162    9.2903   11.6381 N   0  0  0  0  0  0  0  0  0  0  0  0
   29.0541   14.4290    6.8388 O   0  0  0  0  0  0  0  0  0  0  0  0
   26.1768    9.3058   13.9913 C   0  0  2  0  0  0  0  0  0  0  0  0
   26.2212   18.0049    5.4575 N   0  0  0  0  0  0  0  0  0  0  0  0
   26.4067    9.8083   15.4253 C   0  0  2  0  0  0  0  0  0  0  0  0
   26.5440   11.3887   15.4797 C   0  0  2  0  0  0  0  0  0  0  0  0
   27.6590   11.7942   14.5139 O   0  0  0  0  0  0  0  0  0  0  0  0
   26.8321   11.8855   16.9260 C   0  0  0  0  0  0  0  0  0  0  0  0
   26.1526   13.0840   17.2667 N   0  0  0  0  0  0  0  0  0  0  0  0
   27.0564   13.0381    8.4355 C   0  0  2  0  0  0  0  0  0  0  0  0
   26.7963   13.5379    7.0536 N   0  0  0  0  0  0  0  0  0  0  0  0
   25.8749   12.0125    8.7939 C   0  0  0  0  0  0  0  0  0  0  0  0
   26.0855   11.4149   10.2350 C   0  0  2  0  0  0  0  0  0  0  0  0
   24.9980   10.4885   10.5833 N   0  0  0  0  0  0  0  0  0  0  0  0
   26.1111   12.5451   11.2833 C   0  0  2  0  0  0  0  0  0  0  0  0
   27.2641   13.5779   10.9562 C   0  0  2  0  0  0  0  0  0  0  0  0
   27.2098   14.6073   12.0130 O   0  0  0  0  0  0  0  0  0  0  0  0
   26.9893   14.2233    9.5039 C   0  0  1  0  0  0  0  0  0  0  0  0
   28.0090   15.1339    9.2383 O   0  0  0  0  0  0  0  0  0  0  0  0
   26.9471   15.8608   11.8629 C   0  0  1  0  0  0  0  0  0  0  0  0
   26.2464   16.5531   13.0689 C   0  0  2  0  0  0  0  0  0  0  0  0
   24.8694   16.4584   12.8821 O   0  0  0  0  0  0  0  0  0  0  0  0
   26.7318   17.9252   12.8462 C   0  0  1  0  0  0  0  0  0  0  0  0
   28.2170   17.8450   12.3758 C   0  0  2  0  0  0  0  0  0  0  0  0
   28.1084   16.7019   11.5634 O   0  0  0  0  0  0  0  0  0  0  0  0
   29.3145   17.8585   13.4408 C   0  0  0  0  0  0  0  0  0  0  0  0
   29.0535   16.7589   14.2926 O   0  0  0  0  0  0  0  0  0  0  0  0
   25.5726   17.8093   10.6860 C   0  0  2  0  0  0  0  0  0  0  0  0
   25.8289   18.5321   11.8153 O   0  0  0  0  0  0  0  0  0  0  0  0
   25.4926   18.6785    9.4657 C   0  0  1  0  0  0  0  0  0  0  0  0
   22.6126   14.3860   10.9837 N   0  0  0  0  0  0  0  0  0  0  0  0
   27.1701   13.5677    4.0830 O   0  0  0  0  0  0  0  0  0  0  0  0
   25.1445   17.7876    8.2107 C   0  0  2  0  0  0  0  0  0  0  0  0
   23.8165   16.9690    8.3688 C   0  0  1  0  0  0  0  0  0  0  0  0
   23.9212   16.1341    9.5425 C   0  0  1  0  0  0  0  0  0  0  0  0
   24.2562   16.9678   10.7647 O   0  0  0  0  0  0  0  0  0  0  0  0
   22.5749   15.3155    9.7673 C   0  0  0  0  0  0  0  0  0  0  0  0
   24.4689   19.6348    9.6204 N   0  0  0  0  0  0  0  0  0  0  0  0
   26.1297    8.1638   13.9956 O   0  0  0  0  0  0  0  0  0  0  0  0
   26.4350   15.4999    5.0243 C   0  0  0  0  0  0  0  0  0  0  0  0
   22.9511   17.7088    8.5148 O   0  0  0  0  0  0  0  0  0  0  0  0
   25.9908   17.0215    8.0695 O   0  0  0  0  0  0  0  0  0  0  0  0
   27.9265   14.2392    6.3611 C   0  0  0  0  0  0  0  0  0  0  0  0
   26.8846   16.7537    5.3735 C   0  0  0  0  0  0  0  0  0  0  0  0
   27.4958   14.7074    4.8756 C   0  0  1  0  0  0  0  0  0  0  0  0
   27.5868    9.2479   15.9457 F   0  0  0  0  0  0  0  0  0  0  0  0
  1  2  1  1  0  0  0
  1 10  1  0  0  0  0
  1  3  1  0  0  0  0
  3  4  1  6  0  0  0
  3  6  1  0  0  0  0
  5 46  2  0  0  0  0
  6 42  1  1  0  0  0
  6  8  1  0  0  0  0
  7 47  1  0  0  0  0
  8  9  1  0  0  0  0
  8 49  1  6  0  0  0
  9 10  1  0  0  0  0
  9 11  1  1  0  0  0
 11 12  1  0  0  0  0
 13 14  1  6  0  0  0
 13 15  1  0  0  0  0
 13 21  1  0  0  0  0
 14 46  1  0  0  0  0
 15 16  1  0  0  0  0
 16 17  1  1  0  0  0
 16 18  1  0  0  0  0
 18  2  1  1  0  0  0
 18 19  1  0  0  0  0
 19 20  1  1  0  0  0
 19 21  1  0  0  0  0
 21 22  1  6  0  0  0
 23 20  1  1  0  0  0
 23 24  1  0  0  0  0
 23 28  1  0  0  0  0
 24 25  1  6  0  0  0
 24 26  1  0  0  0  0
 26 27  1  0  0  0  0
 26 32  1  6  0  0  0
 27 28  1  0  0  0  0
 27 29  1  1  0  0  0
 29 30  1  0  0  0  0
 31 32  1  1  0  0  0
 31 33  1  0  0  0  0
 31 39  1  0  0  0  0
 33 36  1  0  0  0  0
 33 41  1  1  0  0  0
 34 40  1  0  0  0  0
 35 48  1  0  0  0  0
 36 37  1  0  0  0  0
 36 45  1  1  0  0  0
 37 38  1  0  0  0  0
 37 44  1  1  0  0  0
 38 39  1  0  0  0  0
 38 40  1  1  0  0  0
 43 47  1  0  0  0  0
 46 48  1  0  0  0  0
 48 43  1  1  0  0  0
M  END
>  <CHROM.1>
-107.14402764,74.35163314,-140.81217024,-165.19780681,-116.45278905,149.49592730
-48.43538975,57.90598063,-142.55572516,179.08305220,169.22135636,-159.64211201
117.05355805,26.36988647,14.42993401,10.81825313,-0.71215414,1.44771711,-1.72903421

>  <Name>
ligand

>  <RI>
0

>  <Rbt.Current_Directory>
/home/itssahil/PROJECTS/Mol_Feturizer/New_Systems/rnas/4PDQ

>  <Rbt.Executable>
rbdock ($Id: //depot/dev/client3/rdock/2013.1/src/exe/rbdock.cxx#4 $)

>  <Rbt.Library>
libRbt.so (2013.1, Build901 2013/11/27)

>  <Rbt.Parameter_File>
/export/apps/rDock/src/rDock_2013.1_src/data/scripts/dock_solv.prm

>  <Rbt.Receptor>
prm/blind_docking_60.prm

>  <SCORE>
39.3663

>  <SCORE.INTER>
25.2737

>  <SCORE.INTER.CONST>
1

>  <SCORE.INTER.POLAR>
0

>  <SCORE.INTER.ROT>
13

>  <SCORE.INTER.SOLV>
27.8438

>  <SCORE.INTER.VDW>
-4.69878

>  <SCORE.INTER.norm>
0.51579

>  <SCORE.INTRA>
9.03474

>  <SCORE.INTRA.DIHEDRAL>
-4.05604

>  <SCORE.INTRA.DIHEDRAL.0>
34.5115

>  <SCORE.INTRA.POLAR>
0

>  <SCORE.INTRA.POLAR.0>
0

>  <SCORE.INTRA.REPUL>
0

>  <SCORE.INTRA.REPUL.0>
0

>  <SCORE.INTRA.SOLV>
7.04808

>  <SCORE.INTRA.SOLV.lig_0>
-122.812

>  <SCORE.INTRA.VDW>
7.53872

>  <SCORE.INTRA.VDW.0>
-7.46208

>  <SCORE.INTRA.norm>
0.184382

>  <SCORE.RESTR>
5.05786

>  <SCORE.RESTR.CAVITY>
5.05786

>  <SCORE.RESTR.norm>
0.103222

>  <SCORE.SYSTEM>
0

>  <SCORE.SYSTEM.CONST>
0

>  <SCORE.SYSTEM.DIHEDRAL>
0

>  <SCORE.SYSTEM.SOLV>
0

>  <SCORE.SYSTEM.norm>
0

>  <SCORE.heavy>
49

>  <SCORE.norm>
0.803394

>  <RMSD>
11.541

$$$$
ligand
 OpenBabel11021811513D
libRbt.so/2013.1/901 2013/11/27
 49 52  0  0  0  0  0  0  0  0999 V2000
   26.9376   15.7258   12.3114 C   0  0  2  0  0  0  0  0  0  0  0  0
   25.9764   14.9111   12.9150 O   0  0  0  0  0  0  0  0  0  0  0  0
   27.5346   16.7201   13.3755 C   0  0  2  0  0  0  0  0  0  0  0  0
   28.1544   15.9214   14.5114 N   0  0  0  0  0  0  0  0  0  0  0  0
   28.3253    8.9057   12.7341 O   0  0  0  0  0  0  0  0  0  0  0  0
   26.4365   17.6783   13.8930 C   0  0  2  0  0  0  0  0  0  0  0  0
   28.9255    4.6552   11.4331 N   0  0  0  0  0  0  0  0  0  0  0  0
   25.8120   18.4589   12.7258 C   0  0  2  0  0  0  0  0  0  0  0  0
   25.2000   17.4879   11.6295 C   0  0  2  0  0  0  0  0  0  0  0  0
   26.3051   16.5267   11.1876 O   0  0  0  0  0  0  0  0  0  0  0  0
   24.6193   18.2837   10.4248 C   0  0  0  0  0  0  0  0  0  0  0  0
   25.5794   19.0785    9.7464 N   0  0  0  0  0  0  0  0  0  0  0  0
   26.5184   10.8404   11.5229 C   0  0  2  0  0  0  0  0  0  0  0  0
   26.3296    9.3641   11.4130 N   0  0  0  0  0  0  0  0  0  0  0  0
   26.6160   11.1860   13.0873 C   0  0  0  0  0  0  0  0  0  0  0  0
   26.8417   12.7301   13.2951 C   0  0  2  0  0  0  0  0  0  0  0  0
   26.9125   13.0625   14.7256 N   0  0  0  0  0  0  0  0  0  0  0  0
   25.6797   13.5283   12.6709 C   0  0  2  0  0  0  0  0  0  0  0  0
   25.5530   13.2068   11.1271 C   0  0  2  0  0  0  0  0  0  0  0  0
   24.4269   14.0193   10.6260 O   0  0  0  0  0  0  0  0  0  0  0  0
   25.2573   11.6317   10.9451 C   0  0  1  0  0  0  0  0  0  0  0  0
   25.1415   11.3708    9.5820 O   0  0  0  0  0  0  0  0  0  0  0  0
   24.2238   14.3988    9.4105 C   0  0  1  0  0  0  0  0  0  0  0  0
   23.1084   13.6317    8.6410 C   0  0  2  0  0  0  0  0  0  0  0  0
   23.6983   12.5549    7.9835 O   0  0  0  0  0  0  0  0  0  0  0  0
   22.7195   14.6958    7.7006 C   0  0  1  0  0  0  0  0  0  0  0  0
   22.7485   16.0550    8.4655 C   0  0  2  0  0  0  0  0  0  0  0  0
   23.8873   15.8160    9.2556 O   0  0  0  0  0  0  0  0  0  0  0  0
   21.4736   16.5120    9.1759 C   0  0  0  0  0  0  0  0  0  0  0  0
   20.4605   16.5471    8.1884 O   0  0  0  0  0  0  0  0  0  0  0  0
   24.9298   15.2128    6.7674 C   0  0  2  0  0  0  0  0  0  0  0  0
   23.7042   14.6445    6.5718 O   0  0  0  0  0  0  0  0  0  0  0  0
   25.5945   15.5799    5.4734 C   0  0  1  0  0  0  0  0  0  0  0  0
   28.4846   12.5644    7.9641 N   0  0  0  0  0  0  0  0  0  0  0  0
   25.5930    6.7313   11.9837 O   0  0  0  0  0  0  0  0  0  0  0  0
   27.0225   16.1818    5.7710 C   0  0  2  0  0  0  0  0  0  0  0  0
   27.9513   15.2221    6.5928 C   0  0  1  0  0  0  0  0  0  0  0  0
   27.2953   14.8914    7.8361 C   0  0  1  0  0  0  0  0  0  0  0  0
   25.9182   14.3103    7.5772 O   0  0  0  0  0  0  0  0  0  0  0  0
   28.1851   13.8816    8.6855 C   0  0  0  0  0  0  0  0  0  0  0  0
   25.7623   14.4313    4.6740 N   0  0  0  0  0  0  0  0  0  0  0  0
   26.9026   18.4151   14.6320 O   0  0  0  0  0  0  0  0  0  0  0  0
   27.4501    6.5964   10.6827 C   0  0  0  0  0  0  0  0  0  0  0  0
   28.1044   14.2600    5.9859 O   0  0  0  0  0  0  0  0  0  0  0  0
   26.8856   17.1324    6.4042 O   0  0  0  0  0  0  0  0  0  0  0  0
   27.3492    8.4969   12.0892 C   0  0  0  0  0  0  0  0  0  0  0  0
   28.6338    5.9110   10.8409 C   0  0  0  0  0  0  0  0  0  0  0  0
   27.0019    6.9311   11.8920 C   0  0  1  0  0  0  0  0  0  0  0  0
   26.7895   19.2579   12.1066 F   0  0  0  0  0  0  0  0  0  0  0  0
  1  2  1  1  0  0  0
  1 10  1  0  0  0  0
  1  3  1  0  0  0  0
  3  4  1  1  0  0  0
  3  6  1  0  0  0  0
  5 46  2  0  0  0  0
  6 42  1  1  0  0  0
  6  8  1  0  0  0  0
  7 47  1  0  0  0  0
  8  9  1  0  0  0  0
  8 49  1  6  0  0  0
  9 10  1  0  0  0  0
  9 11  1  6  0  0  0
 11 12  1  0  0  0  0
 13 14  1  1  0  0  0
 13 15  1  0  0  0  0
 13 21  1  0  0  0  0
 14 46  1  0  0  0  0
 15 16  1  0  0  0  0
 16 17  1  1  0  0  0
 16 18  1  0  0  0  0
 18  2  1  6  0  0  0
 18 19  1  0  0  0  0
 19 20  1  1  0  0  0
 19 21  1  0  0  0  0
 21 22  1  6  0  0  0
 23 20  1  1  0  0  0
 23 24  1  0  0  0  0
 23 28  1  0  0  0  0
 24 25  1  6  0  0  0
 24 26  1  0  0  0  0
 26 27  1  0  0  0  0
 26 32  1  6  0  0  0
 27 28  1  0  0  0  0
 27 29  1  1  0  0  0
 29 30  1  0  0  0  0
 31 32  1  6  0  0  0
 31 33  1  0  0  0  0
 31 39  1  0  0  0  0
 33 36  1  0  0  0  0
 33 41  1  6  0  0  0
 34 40  1  0  0  0  0
 35 48  1  0  0  0  0
 36 37  1  0  0  0  0
 36 45  1  1  0  0  0
 37 38  1  0  0  0  0
 37 44  1  6  0  0  0
 38 39  1  0  0  0  0
 38 40  1  6  0  0  0
 43 47  1  0  0  0  0
 46 48  1  0  0  0  0
 48 43  1  6  0  0  0
M  END
>  <CHROM.1>
-143.77057846,73.28031937,60.35453477,-55.02693148,156.69237018,104.64697917
-79.12035967,-56.55361006,-157.44559165,-59.17044891,65.57389498,-138.16289624
140.29077340,25.92399163,13.84049471,10.17919436,-2.41624284,1.25452639,-2.55754254

>  <Name>
ligand

>  <RI>
0

>  <Rbt.Current_Directory>
/home/itssahil/PROJECTS/Mol_Feturizer/New_Systems/rnas/4PDQ

>  <Rbt.Executable>
rbdock ($Id: //depot/dev/client3/rdock/2013.1/src/exe/rbdock.cxx#4 $)

>  <Rbt.Library>
libRbt.so (2013.1, Build901 2013/11/27)

>  <Rbt.Parameter_File>
/export/apps/rDock/src/rDock_2013.1_src/data/scripts/dock_solv.prm

>  <Rbt.Receptor>
prm/blind_docking_60.prm

>  <SCORE>
-3.96641

>  <SCORE.INTER>
-5.35729

>  <SCORE.INTER.CONST>
1

>  <SCORE.INTER.POLAR>
0

>  <SCORE.INTER.ROT>
13

>  <SCORE.INTER.SOLV>
31.3345

>  <SCORE.INTER.VDW>
-26.283

>  <SCORE.INTER.norm>
-0.109333

>  <SCORE.INTRA>
1.08575

>  <SCORE.INTRA.DIHEDRAL>
-11.0702

>  <SCORE.INTRA.DIHEDRAL.0>
34.5115

>  <SCORE.INTRA.POLAR>
0

>  <SCORE.INTRA.POLAR.0>
0

>  <SCORE.INTRA.REPUL>
0

>  <SCORE.INTRA.REPUL.0>
0

>  <SCORE.INTRA.SOLV>
5.16316

>  <SCORE.INTRA.SOLV.lig_0>
-122.812

>  <SCORE.INTRA.VDW>
4.03925

>  <SCORE.INTRA.VDW.0>
-7.46208

>  <SCORE.INTRA.norm>
0.0221581

>  <SCORE.RESTR>
0.305132

>  <SCORE.RESTR.CAVITY>
0.305132

>  <SCORE.RESTR.norm>
0.00622719

>  <SCORE.SYSTEM>
0

>  <SCORE.SYSTEM.CONST>
0

>  <SCORE.SYSTEM.DIHEDRAL>
0

>  <SCORE.SYSTEM.SOLV>
0

>  <SCORE.SYSTEM.norm>
0

>  <SCORE.heavy>
49

>  <SCORE.norm>
-0.0809472

>  <RMSD>
11.544

$$$$
ligand
 OpenBabel11021811513D
libRbt.so/2013.1/901 2013/11/27
 49 52  0  0  0  0  0  0  0  0999 V2000
   24.4897   16.5391   11.6002 C   0  0  2  0  0  0  0  0  0  0  0  0
   24.9531   15.5977   10.6777 O   0  0  0  0  0  0  0  0  0  0  0  0
   23.9841   17.8218   10.8413 C   0  0  2  0  0  0  0  0  0  0  0  0
   22.8717   17.4275    9.8823 N   0  0  0  0  0  0  0  0  0  0  0  0
   25.9135    9.9180   10.5812 O   0  0  0  0  0  0  0  0  0  0  0  0
   25.1555   18.5041   10.0968 C   0  0  2  0  0  0  0  0  0  0  0  0
   27.0146    8.4897   14.5508 N   0  0  0  0  0  0  0  0  0  0  0  0
   26.2744   18.8749   11.0827 C   0  0  2  0  0  0  0  0  0  0  0  0
   26.8096   17.6046   11.8698 C   0  0  2  0  0  0  0  0  0  0  0  0
   25.6113   16.9339   12.5441 O   0  0  0  0  0  0  0  0  0  0  0  0
   27.9031   17.9959   12.9056 C   0  0  0  0  0  0  0  0  0  0  0  0
   28.0993   17.0286   13.9253 N   0  0  0  0  0  0  0  0  0  0  0  0
   25.4346   11.8130   12.7386 C   0  0  2  0  0  0  0  0  0  0  0  0
   25.5263   10.3386   12.9500 N   0  0  0  0  0  0  0  0  0  0  0  0
   24.1562   12.0747   11.8039 C   0  0  0  0  0  0  0  0  0  0  0  0
   23.9695   13.6168   11.5487 C   0  0  2  0  0  0  0  0  0  0  0  0
   22.8127   13.8683   10.6766 N   0  0  0  0  0  0  0  0  0  0  0  0
   25.2234   14.2011   10.8680 C   0  0  2  0  0  0  0  0  0  0  0  0
   26.5047   13.9559   11.7631 C   0  0  2  0  0  0  0  0  0  0  0  0
   27.6401   14.5538   11.0331 O   0  0  0  0  0  0  0  0  0  0  0  0
   26.7106   12.3677   11.9546 C   0  0  1  0  0  0  0  0  0  0  0  0
   27.8460   12.1729   12.7373 O   0  0  0  0  0  0  0  0  0  0  0  0
   27.7381   14.7294    9.7594 C   0  0  1  0  0  0  0  0  0  0  0  0
   29.1284   14.4048    9.1380 C   0  0  2  0  0  0  0  0  0  0  0  0
   29.8887   15.5718    9.1447 O   0  0  0  0  0  0  0  0  0  0  0  0
   28.6843   14.0534    7.7789 C   0  0  1  0  0  0  0  0  0  0  0  0
   27.3523   13.2499    7.8953 C   0  0  2  0  0  0  0  0  0  0  0  0
   26.7759   13.9703    8.9571 O   0  0  0  0  0  0  0  0  0  0  0  0
   27.4350   11.7288    8.0305 C   0  0  0  0  0  0  0  0  0  0  0  0
   27.9958   11.4742    9.3046 O   0  0  0  0  0  0  0  0  0  0  0  0
   27.3541   15.5468    6.3563 C   0  0  2  0  0  0  0  0  0  0  0  0
   28.5188   15.3466    7.0395 O   0  0  0  0  0  0  0  0  0  0  0  0
   27.3368   16.8681    5.6456 C   0  0  1  0  0  0  0  0  0  0  0  0
   22.1616   15.5163    6.9091 N   0  0  0  0  0  0  0  0  0  0  0  0
   25.1729    7.1446   11.1536 O   0  0  0  0  0  0  0  0  0  0  0  0
   25.9469   17.0550    4.9222 C   0  0  2  0  0  0  0  0  0  0  0  0
   24.7159   16.9544    5.8883 C   0  0  1  0  0  0  0  0  0  0  0  0
   24.7489   15.6724    6.5523 C   0  0  1  0  0  0  0  0  0  0  0  0
   26.0769   15.4677    7.2563 O   0  0  0  0  0  0  0  0  0  0  0  0
   23.5388   15.5436    7.5781 C   0  0  0  0  0  0  0  0  0  0  0  0
   27.4911   17.9175    6.5737 N   0  0  0  0  0  0  0  0  0  0  0  0
   24.7719   19.4531    9.5884 O   0  0  0  0  0  0  0  0  0  0  0  0
   27.1549    7.6181   12.1573 C   0  0  0  0  0  0  0  0  0  0  0  0
   24.8065   17.7838    6.6766 O   0  0  0  0  0  0  0  0  0  0  0  0
   25.8299   16.2122    4.1481 O   0  0  0  0  0  0  0  0  0  0  0  0
   25.7730    9.4926   11.7366 C   0  0  0  0  0  0  0  0  0  0  0  0
   27.6473    7.9590   13.3972 C   0  0  0  0  0  0  0  0  0  0  0  0
   25.8592    7.9272   12.1283 C   0  0  1  0  0  0  0  0  0  0  0  0
   25.7954   19.8034   12.0238 F   0  0  0  0  0  0  0  0  0  0  0  0
  1  2  1  6  0  0  0
  1 10  1  0  0  0  0
  1  3  1  0  0  0  0
  3  4  1  6  0  0  0
  3  6  1  0  0  0  0
  5 46  2  0  0  0  0
  6 42  1  1  0  0  0
  6  8  1  0  0  0  0
  7 47  1  0  0  0  0
  8  9  1  0  0  0  0
  8 49  1  1  0  0  0
  9 10  1  0  0  0  0
  9 11  1  1  0  0  0
 11 12  1  0  0  0  0
 13 14  1  6  0  0  0
 13 15  1  0  0  0  0
 13 21  1  0  0  0  0
 14 46  1  0  0  0  0
 15 16  1  0  0  0  0
 16 17  1  6  0  0  0
 16 18  1  0  0  0  0
 18  2  1  1  0  0  0
 18 19  1  0  0  0  0
 19 20  1  6  0  0  0
 19 21  1  0  0  0  0
 21 22  1  1  0  0  0
 23 20  1  1  0  0  0
 23 24  1  0  0  0  0
 23 28  1  0  0  0  0
 24 25  1  6  0  0  0
 24 26  1  0  0  0  0
 26 27  1  0  0  0  0
 26 32  1  6  0  0  0
 27 28  1  0  0  0  0
 27 29  1  1  0  0  0
 29 30  1  0  0  0  0
 31 32  1  1  0  0  0
 31 33  1  0  0  0  0
 31 39  1  0  0  0  0
 33 36  1  0  0  0  0
 33 41  1  1  0  0  0
 34 40  1  0  0  0  0
 35 48  1  0  0  0  0
 36 37  1  0  0  0  0
 36 45  1  6  0  0  0
 37 38  1  0  0  0  0
 37 44  1  1  0  0  0
 38 39  1  0  0  0  0
 38 40  1  1  0  0  0
 43 47  1  0  0  0  0
 46 48  1  0  0  0  0
 48 43  1  6  0  0  0
M  END
>  <CHROM.1>
-164.72802941,50.09138680,160.11486175,63.48438127,-26.29380618,-138.45872446
-130.62757441,68.44120769,-178.95932398,66.09522992,2.75147801,-156.23154663
-42.01312465,26.14926577,14.44414592,9.92422134,2.23721860,1.44059557,-1.13373410

>  <Name>
ligand

>  <RI>
0

>  <Rbt.Current_Directory>
/home/itssahil/PROJECTS/Mol_Feturizer/New_Systems/rnas/4PDQ

>  <Rbt.Executable>
rbdock ($Id: //depot/dev/client3/rdock/2013.1/src/exe/rbdock.cxx#4 $)

>  <Rbt.Library>
libRbt.so (2013.1, Build901 2013/11/27)

>  <Rbt.Parameter_File>
/export/apps/rDock/src/rDock_2013.1_src/data/scripts/dock_solv.prm

>  <Rbt.Receptor>
prm/blind_docking_80.prm

>  <SCORE>
48.5568

>  <SCORE.INTER>
35.4754

>  <SCORE.INTER.CONST>
1

>  <SCORE.INTER.POLAR>
0

>  <SCORE.INTER.ROT>
13

>  <SCORE.INTER.SOLV>
31.9456

>  <SCORE.INTER.VDW>
0.735075

>  <SCORE.INTER.norm>
0.723988

>  <SCORE.INTRA>
11.0305

>  <SCORE.INTRA.DIHEDRAL>
-5.29605

>  <SCORE.INTRA.DIHEDRAL.0>
34.5115

>  <SCORE.INTRA.POLAR>
0

>  <SCORE.INTRA.POLAR.0>
0

>  <SCORE.INTRA.REPUL>
0.936908

>  <SCORE.INTRA.REPUL.0>
0

>  <SCORE.INTRA.SOLV>
8.3737

>  <SCORE.INTRA.SOLV.lig_0>
-122.812

>  <SCORE.INTRA.VDW>
4.80716

>  <SCORE.INTRA.VDW.0>
-7.46208

>  <SCORE.INTRA.norm>
0.225113

>  <SCORE.RESTR>
2.05084

>  <SCORE.RESTR.CAVITY>
2.05084

>  <SCORE.RESTR.norm>
0.0418539

>  <SCORE.SYSTEM>
0

>  <SCORE.SYSTEM.CONST>
0

>  <SCORE.SYSTEM.DIHEDRAL>
0

>  <SCORE.SYSTEM.SOLV>
0

>  <SCORE.SYSTEM.norm>
0

>  <SCORE.heavy>
49

>  <SCORE.norm>
0.990955

>  <RMSD>
11.549

$$$$
ligand
 OpenBabel11021811513D
libRbt.so/2013.1/901 2013/11/27
 49 52  0  0  0  0  0  0  0  0999 V2000
   24.8832   19.3896   10.9452 C   0  0  2  0  0  0  0  0  0  0  0  0
   25.7764   18.3226   10.8201 O   0  0  0  0  0  0  0  0  0  0  0  0
   23.6045   19.1170   10.0690 C   0  0  2  0  0  0  0  0  0  0  0  0
   22.9518   17.8228   10.5287 N   0  0  0  0  0  0  0  0  0  0  0  0
   24.6877   13.1081   13.1670 O   0  0  0  0  0  0  0  0  0  0  0  0
   23.9812   19.0576    8.5702 C   0  0  2  0  0  0  0  0  0  0  0  0
   27.0936    7.8251   13.2688 N   0  0  0  0  0  0  0  0  0  0  0  0
   24.6563   20.3675    8.1344 C   0  0  2  0  0  0  0  0  0  0  0  0
   25.9513   20.6775    8.9985 C   0  0  2  0  0  0  0  0  0  0  0  0
   25.5413   20.6733   10.4723 O   0  0  0  0  0  0  0  0  0  0  0  0
   26.5977   22.0326    8.5890 C   0  0  0  0  0  0  0  0  0  0  0  0
   25.7557   23.1558    8.7974 N   0  0  0  0  0  0  0  0  0  0  0  0
   27.0490   14.3492   12.0014 C   0  0  2  0  0  0  0  0  0  0  0  0
   27.0883   13.0595   12.7513 N   0  0  0  0  0  0  0  0  0  0  0  0
   26.9239   15.5218   13.0903 C   0  0  0  0  0  0  0  0  0  0  0  0
   26.9005   16.9277   12.3825 C   0  0  2  0  0  0  0  0  0  0  0  0
   26.7657   18.0098   13.3688 N   0  0  0  0  0  0  0  0  0  0  0  0
   25.7108   17.0139   11.4057 C   0  0  2  0  0  0  0  0  0  0  0  0
   25.8015   15.8671   10.3196 C   0  0  2  0  0  0  0  0  0  0  0  0
   24.6316   16.0402    9.4360 O   0  0  0  0  0  0  0  0  0  0  0  0
   25.7577   14.4379   11.0658 C   0  0  1  0  0  0  0  0  0  0  0  0
   25.8307   13.4431   10.0938 O   0  0  0  0  0  0  0  0  0  0  0  0
   24.4446   15.4992    8.2805 C   0  0  1  0  0  0  0  0  0  0  0  0
   23.4164   14.3306    8.2404 C   0  0  2  0  0  0  0  0  0  0  0  0
   24.1064   13.1394    8.4520 O   0  0  0  0  0  0  0  0  0  0  0  0
   22.9844   14.4669    6.8394 C   0  0  1  0  0  0  0  0  0  0  0  0
   22.8867   15.9878    6.5067 C   0  0  2  0  0  0  0  0  0  0  0  0
   24.0112   16.4239    7.2304 O   0  0  0  0  0  0  0  0  0  0  0  0
   21.5573   16.6997    6.7616 C   0  0  0  0  0  0  0  0  0  0  0  0
   21.3372   16.6396    8.1583 O   0  0  0  0  0  0  0  0  0  0  0  0
   25.2726   14.2731    5.9733 C   0  0  2  0  0  0  0  0  0  0  0  0
   24.0097   13.7562    6.0088 O   0  0  0  0  0  0  0  0  0  0  0  0
   25.9747   13.9594    4.6850 C   0  0  1  0  0  0  0  0  0  0  0  0
   28.4784   12.2496    8.4817 N   0  0  0  0  0  0  0  0  0  0  0  0
   24.7868   10.7826   14.7403 O   0  0  0  0  0  0  0  0  0  0  0  0
   27.4409   14.5406    4.7332 C   0  0  2  0  0  0  0  0  0  0  0  0
   28.2877   14.0129    5.9428 C   0  0  1  0  0  0  0  0  0  0  0  0
   27.5975   14.3349    7.1698 C   0  0  1  0  0  0  0  0  0  0  0  0
   26.1832   13.7868    7.1486 O   0  0  0  0  0  0  0  0  0  0  0  0
   28.4015   13.7779    8.4254 C   0  0  0  0  0  0  0  0  0  0  0  0
   26.0633   12.5636    4.5110 N   0  0  0  0  0  0  0  0  0  0  0  0
   23.0321   18.8999    7.9531 O   0  0  0  0  0  0  0  0  0  0  0  0
   26.3011   10.2463   13.1343 C   0  0  0  0  0  0  0  0  0  0  0  0
   28.3739   12.8718    5.8532 O   0  0  0  0  0  0  0  0  0  0  0  0
   27.3698   15.6825    4.8520 O   0  0  0  0  0  0  0  0  0  0  0  0
   25.7870   12.5507   13.2958 C   0  0  0  0  0  0  0  0  0  0  0  0
   26.6295    9.0691   13.7686 C   0  0  0  0  0  0  0  0  0  0  0  0
   25.9905   11.1454   14.0673 C   0  0  1  0  0  0  0  0  0  0  0  0
   23.7612   21.4413    8.2860 F   0  0  0  0  0  0  0  0  0  0  0  0
  1  2  1  6  0  0  0
  1 10  1  0  0  0  0
  1  3  1  0  0  0  0
  3  4  1  1  0  0  0
  3  6  1  0  0  0  0
  5 46  2  0  0  0  0
  6 42  1  6  0  0  0
  6  8  1  0  0  0  0
  7 47  1  0  0  0  0
  8  9  1  0  0  0  0
  8 49  1  1  0  0  0
  9 10  1  0  0  0  0
  9 11  1  6  0  0  0
 11 12  1  0  0  0  0
 13 14  1  1  0  0  0
 13 15  1  0  0  0  0
 13 21  1  0  0  0  0
 14 46  1  0  0  0  0
 15 16  1  0  0  0  0
 16 17  1  1  0  0  0
 16 18  1  0  0  0  0
 18  2  1  6  0  0  0
 18 19  1  0  0  0  0
 19 20  1  6  0  0  0
 19 21  1  0  0  0  0
 21 22  1  6  0  0  0
 23 20  1  1  0  0  0
 23 24  1  0  0  0  0
 23 28  1  0  0  0  0
 24 25  1  6  0  0  0
 24 26  1  0  0  0  0
 26 27  1  0  0  0  0
 26 32  1  6  0  0  0
 27 28  1  0  0  0  0
 27 29  1  1  0  0  0
 29 30  1  0  0  0  0
 31 32  1  6  0  0  0
 31 33  1  0  0  0  0
 31 39  1  0  0  0  0
 33 36  1  0  0  0  0
 33 41  1  1  0  0  0
 34 40  1  0  0  0  0
 35 48  1  0  0  0  0
 36 37  1  0  0  0  0
 36 45  1  1  0  0  0
 37 38  1  0  0  0  0
 37 44  1  6  0  0  0
 38 39  1  0  0  0  0
 38 40  1  1  0  0  0
 43 47  1  0  0  0  0
 46 48  1  0  0  0  0
 48 43  1  6  0  0  0
M  END
>  <CHROM.1>
-75.68643183,-114.23747080,62.18441857,76.53625310,165.52872709,105.28312081
-66.07083567,63.72310327,-151.43238619,-65.38401105,-176.49231462,-67.23775256
-9.39629397,25.44635367,15.52418428,9.32029568,2.84161622,1.36292689,-1.67799990

>  <Name>
ligand

>  <RI>
0

>  <Rbt.Current_Directory>
/home/itssahil/PROJECTS/Mol_Feturizer/New_Systems/rnas/4PDQ

>  <Rbt.Executable>
rbdock ($Id: //depot/dev/client3/rdock/2013.1/src/exe/rbdock.cxx#4 $)

>  <Rbt.Library>
libRbt.so (2013.1, Build901 2013/11/27)

>  <Rbt.Parameter_File>
/export/apps/rDock/src/rDock_2013.1_src/data/scripts/dock_solv.prm

>  <Rbt.Receptor>
prm/blind_docking_40.prm

>  <SCORE>
4.77557

>  <SCORE.INTER>
0.561983

>  <SCORE.INTER.CONST>
1

>  <SCORE.INTER.POLAR>
0

>  <SCORE.INTER.ROT>
13

>  <SCORE.INTER.SOLV>
29.5743

>  <SCORE.INTER.VDW>
-21.7501

>  <SCORE.INTER.norm>
0.011469

>  <SCORE.INTRA>
2.25408

>  <SCORE.INTRA.DIHEDRAL>
-14.1134

>  <SCORE.INTRA.DIHEDRAL.0>
34.5115

>  <SCORE.INTRA.POLAR>
0

>  <SCORE.INTRA.POLAR.0>
0

>  <SCORE.INTRA.REPUL>
0.206134

>  <SCORE.INTRA.REPUL.0>
0

>  <SCORE.INTRA.SOLV>
8.44005

>  <SCORE.INTRA.SOLV.lig_0>
-122.812

>  <SCORE.INTRA.VDW>
4.06008

>  <SCORE.INTRA.VDW.0>
-7.46208

>  <SCORE.INTRA.norm>
0.0460016

>  <SCORE.RESTR>
1.95951

>  <SCORE.RESTR.CAVITY>
1.95951

>  <SCORE.RESTR.norm>
0.03999

>  <SCORE.SYSTEM>
0

>  <SCORE.SYSTEM.CONST>
0

>  <SCORE.SYSTEM.DIHEDRAL>
0

>  <SCORE.SYSTEM.SOLV>
0

>  <SCORE.SYSTEM.norm>
0

>  <SCORE.heavy>
49

>  <SCORE.norm>
0.0974607

>  <RMSD>
11.552

$$$$
ligand
 OpenBabel11021811513D
libRbt.so/2013.1/901 2013/11/27
 49 52  0  0  0  0  0  0  0  0999 V2000
   26.1774   12.1697   12.4120 C   0  0  2  0  0  0  0  0  0  0  0  0
   26.8150   13.3919   12.1843 O   0  0  0  0  0  0  0  0  0  0  0  0
   26.9970   11.3308   13.4616 C   0  0  2  0  0  0  0  0  0  0  0  0
   27.1054   12.1213   14.7562 N   0  0  0  0  0  0  0  0  0  0  0  0
   24.8588   17.8955    9.1224 O   0  0  0  0  0  0  0  0  0  0  0  0
   28.3930   10.9779   12.8973 C   0  0  2  0  0  0  0  0  0  0  0  0
   26.7156   19.9624    8.0889 N   0  0  0  0  0  0  0  0  0  0  0  0
   28.2578   10.1975   11.5804 C   0  0  2  0  0  0  0  0  0  0  0  0
   27.4339   11.0126   10.4957 C   0  0  2  0  0  0  0  0  0  0  0  0
   26.0858   11.3847   11.1158 O   0  0  0  0  0  0  0  0  0  0  0  0
   27.2534   10.1939    9.1847 C   0  0  0  0  0  0  0  0  0  0  0  0
   27.5023   10.9403    8.0037 N   0  0  0  0  0  0  0  0  0  0  0  0
   25.0422   17.3435   11.9749 C   0  0  2  0  0  0  0  0  0  0  0  0
   24.6583   18.6756   11.4223 N   0  0  0  0  0  0  0  0  0  0  0  0
   26.5994   17.1311   11.6488 C   0  0  0  0  0  0  0  0  0  0  0  0
   27.0968   15.7518   12.2218 C   0  0  2  0  0  0  0  0  0  0  0  0
   28.5178   15.5363   11.9118 N   0  0  0  0  0  0  0  0  0  0  0  0
   26.2870   14.5940   11.6048 C   0  0  2  0  0  0  0  0  0  0  0  0
   24.7443   14.7755   11.9048 C   0  0  2  0  0  0  0  0  0  0  0  0
   24.0634   13.6221   11.2838 O   0  0  0  0  0  0  0  0  0  0  0  0
   24.2459   16.1633   11.2513 C   0  0  1  0  0  0  0  0  0  0  0  0
   22.8861   16.3005   11.5191 O   0  0  0  0  0  0  0  0  0  0  0  0
   23.9490   13.3746   10.0235 C   0  0  1  0  0  0  0  0  0  0  0  0
   23.0978   12.1237    9.6555 C   0  0  2  0  0  0  0  0  0  0  0  0
   23.9520   11.0263    9.5786 O   0  0  0  0  0  0  0  0  0  0  0  0
   22.6429   12.5527    8.3224 C   0  0  1  0  0  0  0  0  0  0  0  0
   22.3272   14.0791    8.3846 C   0  0  2  0  0  0  0  0  0  0  0  0
   23.3821   14.4676    9.2300 O   0  0  0  0  0  0  0  0  0  0  0  0
   20.9114   14.5095    8.7707 C   0  0  0  0  0  0  0  0  0  0  0  0
   20.9468   15.9183    8.8999 O   0  0  0  0  0  0  0  0  0  0  0  0
   24.6156   13.2312    7.0296 C   0  0  2  0  0  0  0  0  0  0  0  0
   23.7543   12.2286    7.3707 O   0  0  0  0  0  0  0  0  0  0  0  0
   24.9199   13.2383    5.5604 C   0  0  1  0  0  0  0  0  0  0  0  0
   29.3790   15.1469    8.0150 N   0  0  0  0  0  0  0  0  0  0  0  0
   22.9939   20.6806   10.1943 O   0  0  0  0  0  0  0  0  0  0  0  0
   25.9568   14.3856    5.2464 C   0  0  2  0  0  0  0  0  0  0  0  0
   27.2892   14.2712    6.0652 C   0  0  1  0  0  0  0  0  0  0  0  0
   26.9717   14.2763    7.4740 C   0  0  1  0  0  0  0  0  0  0  0  0
   25.9748   13.1812    7.8025 O   0  0  0  0  0  0  0  0  0  0  0  0
   28.2943   14.1175    8.3450 C   0  0  0  0  0  0  0  0  0  0  0  0
   25.4986   12.0104    5.1814 N   0  0  0  0  0  0  0  0  0  0  0  0
   28.9519   10.3356   13.6598 O   0  0  0  0  0  0  0  0  0  0  0  0
   25.1911   21.0943    9.7928 C   0  0  0  0  0  0  0  0  0  0  0  0
   27.7913   13.2734    5.8009 O   0  0  0  0  0  0  0  0  0  0  0  0
   25.4768   15.3907    5.5340 O   0  0  0  0  0  0  0  0  0  0  0  0
   24.6125   18.8036    9.9289 C   0  0  0  0  0  0  0  0  0  0  0  0
   26.0935   21.0505    8.7536 C   0  0  0  0  0  0  0  0  0  0  0  0
   24.1705   20.2940    9.4874 C   0  0  1  0  0  0  0  0  0  0  0  0
   27.5932    8.9800   11.8112 F   0  0  0  0  0  0  0  0  0  0  0  0
  1  2  1  6  0  0  0
  1 10  1  0  0  0  0
  1  3  1  0  0  0  0
  3  4  1  1  0  0  0
  3  6  1  0  0  0  0
  5 46  2  0  0  0  0
  6 42  1  1  0  0  0
  6  8  1  0  0  0  0
  7 47  1  0  0  0  0
  8  9  1  0  0  0  0
  8 49  1  1  0  0  0
  9 10  1  0  0  0  0
  9 11  1  6  0  0  0
 11 12  1  0  0  0  0
 13 14  1  6  0  0  0
 13 15  1  0  0  0  0
 13 21  1  0  0  0  0
 14 46  1  0  0  0  0
 15 16  1  0  0  0  0
 16 17  1  6  0  0  0
 16 18  1  0  0  0  0
 18  2  1  1  0  0  0
 18 19  1  0  0  0  0
 19 20  1  6  0  0  0
 19 21  1  0  0  0  0
 21 22  1  1  0  0  0
 23 20  1  1  0  0  0
 23 24  1  0  0  0  0
 23 28  1  0  0  0  0
 24 25  1  6  0  0  0
 24 26  1  0  0  0  0
 26 27  1  0  0  0  0
 26 32  1  6  0  0  0
 27 28  1  0  0  0  0
 27 29  1  1  0  0  0
 29 30  1  0  0  0  0
 31 32  1  6  0  0  0
 31 33  1  0  0  0  0
 31 39  1  0  0  0  0
 33 36  1  0  0  0  0
 33 41  1  1  0  0  0
 34 40  1  0  0  0  0
 35 48  1  0  0  0  0
 36 37  1  0  0  0  0
 36 45  1  1  0  0  0
 37 38  1  0  0  0  0
 37 44  1  6  0  0  0
 38 39  1  0  0  0  0
 38 40  1  1  0  0  0
 43 47  1  0  0  0  0
 46 48  1  0  0  0  0
 48 43  1  1  0  0  0
M  END
>  <CHROM.1>
-161.93492088,151.91315655,-134.80661701,69.84659038,-67.79846398,-176.36087731
-97.65906456,173.37377401,-136.62662566,53.87196754,-51.86148844,-156.22730064
129.37665490,25.59066682,14.35687204,9.71626381,-0.57138317,-1.18340998,0.75493762

>  <Name>
ligand

>  <RI>
0

>  <Rbt.Current_Directory>
/home/itssahil/PROJECTS/Mol_Feturizer/New_Systems/rnas/4PDQ

>  <Rbt.Executable>
rbdock ($Id: //depot/dev/client3/rdock/2013.1/src/exe/rbdock.cxx#4 $)

>  <Rbt.Library>
libRbt.so (2013.1, Build901 2013/11/27)

>  <Rbt.Parameter_File>
/export/apps/rDock/src/rDock_2013.1_src/data/scripts/dock_solv.prm

>  <Rbt.Receptor>
prm/blind_docking_100.prm

>  <SCORE>
13.4155

>  <SCORE.INTER>
6.26273

>  <SCORE.INTER.CONST>
1

>  <SCORE.INTER.POLAR>
0

>  <SCORE.INTER.ROT>
13

>  <SCORE.INTER.SOLV>
39.4613

>  <SCORE.INTER.VDW>
-21.2453

>  <SCORE.INTER.norm>
0.127811

>  <SCORE.INTRA>
-0.608034

>  <SCORE.INTRA.DIHEDRAL>
-10.6492

>  <SCORE.INTRA.DIHEDRAL.0>
34.5115

>  <SCORE.INTRA.POLAR>
0

>  <SCORE.INTRA.POLAR.0>
0

>  <SCORE.INTRA.REPUL>
0.133918

>  <SCORE.INTRA.REPUL.0>
0

>  <SCORE.INTRA.SOLV>
7.38162

>  <SCORE.INTRA.SOLV.lig_0>
-122.812

>  <SCORE.INTRA.VDW>
0.356143

>  <SCORE.INTRA.VDW.0>
-7.46208

>  <SCORE.INTRA.norm>
-0.0124089

>  <SCORE.RESTR>
7.76078

>  <SCORE.RESTR.CAVITY>
7.76078

>  <SCORE.RESTR.norm>
0.158383

>  <SCORE.SYSTEM>
0

>  <SCORE.SYSTEM.CONST>
0

>  <SCORE.SYSTEM.DIHEDRAL>
0

>  <SCORE.SYSTEM.SOLV>
0

>  <SCORE.SYSTEM.norm>
0

>  <SCORE.heavy>
49

>  <SCORE.norm>
0.273785

>  <RMSD>
11.560

$$$$
ligand
 OpenBabel11021811513D
libRbt.so/2013.1/901 2013/11/27
 49 52  0  0  0  0  0  0  0  0999 V2000
   25.8049   12.4724   12.4179 C   0  0  2  0  0  0  0  0  0  0  0  0
   26.4734   13.3249   11.5357 O   0  0  0  0  0  0  0  0  0  0  0  0
   26.7673   12.0658   13.5950 C   0  0  2  0  0  0  0  0  0  0  0  0
   27.2281   13.3215   14.3184 N   0  0  0  0  0  0  0  0  0  0  0  0
   25.7649   18.5716    9.2846 O   0  0  0  0  0  0  0  0  0  0  0  0
   27.9672   11.2539   13.0539 C   0  0  2  0  0  0  0  0  0  0  0  0
   23.9484   22.8713    7.0212 N   0  0  0  0  0  0  0  0  0  0  0  0
   27.4762   10.0017   12.3106 C   0  0  2  0  0  0  0  0  0  0  0  0
   26.4997   10.3724   11.1153 C   0  0  2  0  0  0  0  0  0  0  0  0
   25.3604   11.2177   11.6878 O   0  0  0  0  0  0  0  0  0  0  0  0
   25.9629    9.0973   10.4026 C   0  0  0  0  0  0  0  0  0  0  0  0
   26.8766    8.0114   10.4051 N   0  0  0  0  0  0  0  0  0  0  0  0
   24.6588   17.2619   11.6374 C   0  0  2  0  0  0  0  0  0  0  0  0
   24.4143   18.6969   11.3089 N   0  0  0  0  0  0  0  0  0  0  0  0
   26.2421   17.0893   11.8372 C   0  0  0  0  0  0  0  0  0  0  0  0
   26.5886   15.6004   12.2132 C   0  0  2  0  0  0  0  0  0  0  0  0
   28.0390   15.4248   12.3792 N   0  0  0  0  0  0  0  0  0  0  0  0
   26.1106   14.6441   11.1023 C   0  0  2  0  0  0  0  0  0  0  0  0
   24.5517   14.7924   10.8767 C   0  0  2  0  0  0  0  0  0  0  0  0
   24.1954   13.8377    9.8084 O   0  0  0  0  0  0  0  0  0  0  0  0
   24.2316   16.3086   10.4294 C   0  0  1  0  0  0  0  0  0  0  0  0
   22.8577   16.4164   10.2284 O   0  0  0  0  0  0  0  0  0  0  0  0
   24.8820   13.5633    8.7520 C   0  0  1  0  0  0  0  0  0  0  0  0
   24.3615   12.3684    7.8999 C   0  0  2  0  0  0  0  0  0  0  0  0
   24.9879   11.2093    8.3517 O   0  0  0  0  0  0  0  0  0  0  0  0
   24.8814   12.7913    6.5889 C   0  0  1  0  0  0  0  0  0  0  0  0
   24.7129   14.3379    6.4751 C   0  0  2  0  0  0  0  0  0  0  0  0
   25.0254   14.6719    7.8053 O   0  0  0  0  0  0  0  0  0  0  0  0
   23.4074   14.8822    5.8935 C   0  0  0  0  0  0  0  0  0  0  0  0
   23.5849   16.2799    5.7610 O   0  0  0  0  0  0  0  0  0  0  0  0
   27.2044   13.0071    7.3508 C   0  0  2  0  0  0  0  0  0  0  0  0
   26.3157   12.3591    6.5422 O   0  0  0  0  0  0  0  0  0  0  0  0
   27.5189   14.3868    6.8521 C   0  0  1  0  0  0  0  0  0  0  0  0
   31.6585   11.8609    7.2337 N   0  0  0  0  0  0  0  0  0  0  0  0
   25.5655   21.6060   10.6074 O   0  0  0  0  0  0  0  0  0  0  0  0
   28.5866   15.0558    7.8021 C   0  0  2  0  0  0  0  0  0  0  0  0
   29.9100   14.2268    7.9441 C   0  0  1  0  0  0  0  0  0  0  0  0
   29.5830   12.9083    8.4340 C   0  0  1  0  0  0  0  0  0  0  0  0
   28.5565   12.2428    7.5371 O   0  0  0  0  0  0  0  0  0  0  0  0
   30.8951   12.0153    8.5522 C   0  0  0  0  0  0  0  0  0  0  0  0
   28.0690   14.3179    5.5563 N   0  0  0  0  0  0  0  0  0  0  0  0
   28.6282   10.9363   13.9305 O   0  0  0  0  0  0  0  0  0  0  0  0
   24.8412   21.0221    8.5351 C   0  0  0  0  0  0  0  0  0  0  0  0
   30.3885   14.1293    6.9053 O   0  0  0  0  0  0  0  0  0  0  0  0
   28.1301   15.1336    8.8551 O   0  0  0  0  0  0  0  0  0  0  0  0
   25.0575   19.2274   10.0624 C   0  0  0  0  0  0  0  0  0  0  0  0
   24.2566   22.2362    8.2519 C   0  0  0  0  0  0  0  0  0  0  0  0
   24.6901   20.7849    9.8375 C   0  0  1  0  0  0  0  0  0  0  0  0
   26.7826    9.1593   13.1976 F   0  0  0  0  0  0  0  0  0  0  0  0
  1  2  1  6  0  0  0
  1 10  1  0  0  0  0
  1  3  1  0  0  0  0
  3  4  1  6  0  0  0
  3  6  1  0  0  0  0
  5 46  2  0  0  0  0
  6 42  1  1  0  0  0
  6  8  1  0  0  0  0
  7 47  1  0  0  0  0
  8  9  1  0  0  0  0
  8 49  1  1  0  0  0
  9 10  1  0  0  0  0
  9 11  1  1  0  0  0
 11 12  1  0  0  0  0
 13 14  1  6  0  0  0
 13 15  1  0  0  0  0
 13 21  1  0  0  0  0
 14 46  1  0  0  0  0
 15 16  1  0  0  0  0
 16 17  1  6  0  0  0
 16 18  1  0  0  0  0
 18  2  1  1  0  0  0
 18 19  1  0  0  0  0
 19 20  1  6  0  0  0
 19 21  1  0  0  0  0
 21 22  1  1  0  0  0
 23 20  1  1  0  0  0
 23 24  1  0  0  0  0
 23 28  1  0  0  0  0
 24 25  1  1  0  0  0
 24 26  1  0  0  0  0
 26 27  1  0  0  0  0
 26 32  1  1  0  0  0
 27 28  1  0  0  0  0
 27 29  1  1  0  0  0
 29 30  1  0  0  0  0
 31 32  1  6  0  0  0
 31 33  1  0  0  0  0
 31 39  1  0  0  0  0
 33 36  1  0  0  0  0
 33 41  1  6  0  0  0
 34 40  1  0  0  0  0
 35 48  1  0  0  0  0
 36 37  1  0  0  0  0
 36 45  1  1  0  0  0
 37 38  1  0  0  0  0
 37 44  1  6  0  0  0
 38 39  1  0  0  0  0
 38 40  1  6  0  0  0
 43 47  1  0  0  0  0
 46 48  1  0  0  0  0
 48 43  1  6  0  0  0
M  END
>  <CHROM.1>
-123.67649853,82.22137731,-31.76979575,60.95066455,-38.89801912,171.58547725
-69.74630644,-173.29252697,-73.68506093,-57.95446411,-169.00538122,-73.91797425
-97.71380415,26.33495948,14.43960537,9.60345950,0.68146430,-1.17526661,2.07635575

>  <Name>
ligand

>  <RI>
0

>  <Rbt.Current_Directory>
/home/itssahil/PROJECTS/Mol_Feturizer/New_Systems/rnas/4PDQ

>  <Rbt.Executable>
rbdock ($Id: //depot/dev/client3/rdock/2013.1/src/exe/rbdock.cxx#4 $)

>  <Rbt.Library>
libRbt.so (2013.1, Build901 2013/11/27)

>  <Rbt.Parameter_File>
/export/apps/rDock/src/rDock_2013.1_src/data/scripts/dock_solv.prm

>  <Rbt.Receptor>
prm/blind_docking_100.prm

>  <SCORE>
9.13601

>  <SCORE.INTER>
-1.18725

>  <SCORE.INTER.CONST>
1

>  <SCORE.INTER.POLAR>
0

>  <SCORE.INTER.ROT>
13

>  <SCORE.INTER.SOLV>
29.6272

>  <SCORE.INTER.VDW>
-22.9339

>  <SCORE.INTER.norm>
-0.0242296

>  <SCORE.INTRA>
-0.120975

>  <SCORE.INTRA.DIHEDRAL>
-16.4658

>  <SCORE.INTRA.DIHEDRAL.0>
34.5115

>  <SCORE.INTRA.POLAR>
0

>  <SCORE.INTRA.POLAR.0>
0

>  <SCORE.INTRA.REPUL>
0.0473396

>  <SCORE.INTRA.REPUL.0>
0

>  <SCORE.INTRA.SOLV>
4.73885

>  <SCORE.INTRA.SOLV.lig_0>
-122.812

>  <SCORE.INTRA.VDW>
5.50579

>  <SCORE.INTRA.VDW.0>
-7.46208

>  <SCORE.INTRA.norm>
-0.00246888

>  <SCORE.RESTR>
10.4442

>  <SCORE.RESTR.CAVITY>
10.4442

>  <SCORE.RESTR.norm>
0.213148

>  <SCORE.SYSTEM>
0

>  <SCORE.SYSTEM.CONST>
0

>  <SCORE.SYSTEM.DIHEDRAL>
0

>  <SCORE.SYSTEM.SOLV>
0

>  <SCORE.SYSTEM.norm>
0

>  <SCORE.heavy>
49

>  <SCORE.norm>
0.186449

>  <RMSD>
11.587

$$$$
ligand
 OpenBabel11021811513D
libRbt.so/2013.1/901 2013/11/27
 49 52  0  0  0  0  0  0  0  0999 V2000
   25.0875   13.8259    9.0547 C   0  0  2  0  0  0  0  0  0  0  0  0
   24.5189   14.7182    9.9672 O   0  0  0  0  0  0  0  0  0  0  0  0
   24.0336   12.7251    8.6615 C   0  0  2  0  0  0  0  0  0  0  0  0
   22.8128   13.3981    8.0541 N   0  0  0  0  0  0  0  0  0  0  0  0
   24.2013   20.4105    8.8617 O   0  0  0  0  0  0  0  0  0  0  0  0
   23.6539   11.8770    9.8978 C   0  0  2  0  0  0  0  0  0  0  0  0
   25.4288   23.2490   11.2155 N   0  0  0  0  0  0  0  0  0  0  0  0
   24.9052   11.2237   10.5053 C   0  0  2  0  0  0  0  0  0  0  0  0
   25.9937   12.3047   10.9133 C   0  0  2  0  0  0  0  0  0  0  0  0
   26.2975   13.1516    9.6760 O   0  0  0  0  0  0  0  0  0  0  0  0
   27.2797   11.6330   11.4759 C   0  0  0  0  0  0  0  0  0  0  0  0
   27.8257   10.6371   10.6249 N   0  0  0  0  0  0  0  0  0  0  0  0
   22.5661   18.5645   10.4087 C   0  0  2  0  0  0  0  0  0  0  0  0
   22.3899   20.0458   10.4504 N   0  0  0  0  0  0  0  0  0  0  0  0
   23.8969   18.2265   11.2400 C   0  0  0  0  0  0  0  0  0  0  0  0
   24.1464   16.6724   11.2681 C   0  0  2  0  0  0  0  0  0  0  0  0
   25.3745   16.3512   12.0101 N   0  0  0  0  0  0  0  0  0  0  0  0
   24.2935   16.1292    9.8327 C   0  0  2  0  0  0  0  0  0  0  0  0
   22.9978   16.4500    8.9835 C   0  0  2  0  0  0  0  0  0  0  0  0
   23.2339   15.8868    7.6394 O   0  0  0  0  0  0  0  0  0  0  0  0
   22.8020   18.0495    8.9155 C   0  0  1  0  0  0  0  0  0  0  0  0
   21.6627   18.3112    8.1583 O   0  0  0  0  0  0  0  0  0  0  0  0
   24.3668   15.5373    7.1322 C   0  0  1  0  0  0  0  0  0  0  0  0
   24.4026   15.4139    5.5804 C   0  0  2  0  0  0  0  0  0  0  0  0
   24.0855   14.1002    5.2433 O   0  0  0  0  0  0  0  0  0  0  0  0
   25.8319   15.6988    5.3709 C   0  0  1  0  0  0  0  0  0  0  0  0
   26.2532   16.8266    6.3629 C   0  0  2  0  0  0  0  0  0  0  0  0
   25.4900   16.4148    7.4703 O   0  0  0  0  0  0  0  0  0  0  0  0
   26.1162   18.2796    5.9059 C   0  0  0  0  0  0  0  0  0  0  0  0
   24.7352   18.4979    5.6876 O   0  0  0  0  0  0  0  0  0  0  0  0
   27.7360   14.4637    6.3049 C   0  0  2  0  0  0  0  0  0  0  0  0
   26.5605   14.4116    5.6128 O   0  0  0  0  0  0  0  0  0  0  0  0
   28.5413   13.2080    6.1446 C   0  0  1  0  0  0  0  0  0  0  0  0
   27.1010   15.6955   10.4151 N   0  0  0  0  0  0  0  0  0  0  0  0
   22.9366   22.8020   11.1196 O   0  0  0  0  0  0  0  0  0  0  0  0
   29.8572   13.3164    7.0088 C   0  0  2  0  0  0  0  0  0  0  0  0
   29.5905   13.5869    8.5302 C   0  0  1  0  0  0  0  0  0  0  0  0
   28.8235   14.8037    8.6592 C   0  0  1  0  0  0  0  0  0  0  0  0
   27.5516   14.7251    7.8363 O   0  0  0  0  0  0  0  0  0  0  0  0
   28.4912   15.0947   10.1882 C   0  0  0  0  0  0  0  0  0  0  0  0
   27.8044   12.0995    6.6076 N   0  0  0  0  0  0  0  0  0  0  0  0
   22.9202   11.0607    9.5789 O   0  0  0  0  0  0  0  0  0  0  0  0
   23.9803   23.0841    9.1219 C   0  0  0  0  0  0  0  0  0  0  0  0
   28.9753   12.7135    8.9501 O   0  0  0  0  0  0  0  0  0  0  0  0
   30.4707   14.2070    6.6169 O   0  0  0  0  0  0  0  0  0  0  0  0
   23.3140   20.8638    9.5985 C   0  0  0  0  0  0  0  0  0  0  0  0
   25.1265   22.9241    9.8679 C   0  0  0  0  0  0  0  0  0  0  0  0
   22.9914   22.4409    9.7413 C   0  0  1  0  0  0  0  0  0  0  0  0
   25.4874   10.3459    9.5737 F   0  0  0  0  0  0  0  0  0  0  0  0
  1  2  1  1  0  0  0
  1 10  1  0  0  0  0
  1  3  1  0  0  0  0
  3  4  1  1  0  0  0
  3  6  1  0  0  0  0
  5 46  2  0  0  0  0
  6 42  1  6  0  0  0
  6  8  1  0  0  0  0
  7 47  1  0  0  0  0
  8  9  1  0  0  0  0
  8 49  1  6  0  0  0
  9 10  1  0  0  0  0
  9 11  1  6  0  0  0
 11 12  1  0  0  0  0
 13 14  1  6  0  0  0
 13 15  1  0  0  0  0
 13 21  1  0  0  0  0
 14 46  1  0  0  0  0
 15 16  1  0  0  0  0
 16 17  1  1  0  0  0
 16 18  1  0  0  0  0
 18  2  1  1  0  0  0
 18 19  1  0  0  0  0
 19 20  1  6  0  0  0
 19 21  1  0  0  0  0
 21 22  1  6  0  0  0
 23 20  1  6  0  0  0
 23 24  1  0  0  0  0
 23 28  1  0  0  0  0
 24 25  1  1  0  0  0
 24 26  1  0  0  0  0
 26 27  1  0  0  0  0
 26 32  1  1  0  0  0
 27 28  1  0  0  0  0
 27 29  1  6  0  0  0
 29 30  1  0  0  0  0
 31 32  1  6  0  0  0
 31 33  1  0  0  0  0
 31 39  1  0  0  0  0
 33 36  1  0  0  0  0
 33 41  1  1  0  0  0
 34 40  1  0  0  0  0
 35 48  1  0  0  0  0
 36 37  1  0  0  0  0
 36 45  1  6  0  0  0
 37 38  1  0  0  0  0
 37 44  1  6  0  0  0
 38 39  1  0  0  0  0
 38 40  1  1  0  0  0
 43 47  1  0  0  0  0
 46 48  1  0  0  0  0
 48 43  1  6  0  0  0
M  END
>  <CHROM.1>
-118.29926686,-159.47216600,52.70210093,74.05319202,-17.21705190,-160.97157486
-138.89424752,63.11451486,-163.83236231,-143.00816751,-57.72055019,49.88927974
-130.29238835,25.40672075,15.81106828,8.71875398,1.07754340,-0.69605336,2.93625162

>  <Name>
ligand

>  <RI>
0

>  <Rbt.Current_Directory>
/home/itssahil/PROJECTS/Mol_Feturizer/New_Systems/rnas/4PDQ

>  <Rbt.Executable>
rbdock ($Id: //depot/dev/client3/rdock/2013.1/src/exe/rbdock.cxx#4 $)

>  <Rbt.Library>
libRbt.so (2013.1, Build901 2013/11/27)

>  <Rbt.Parameter_File>
/export/apps/rDock/src/rDock_2013.1_src/data/scripts/dock_solv.prm

>  <Rbt.Receptor>
prm/blind_docking_40.prm

>  <SCORE>
25.749

>  <SCORE.INTER>
5.84042

>  <SCORE.INTER.CONST>
1

>  <SCORE.INTER.POLAR>
0

>  <SCORE.INTER.ROT>
13

>  <SCORE.INTER.SOLV>
20.3478

>  <SCORE.INTER.VDW>
-15.1557

>  <SCORE.INTER.norm>
0.119192

>  <SCORE.INTRA>
18.039

>  <SCORE.INTRA.DIHEDRAL>
-5.92383

>  <SCORE.INTRA.DIHEDRAL.0>
34.5115

>  <SCORE.INTRA.POLAR>
0

>  <SCORE.INTRA.POLAR.0>
0

>  <SCORE.INTRA.REPUL>
0.189796

>  <SCORE.INTRA.REPUL.0>
0

>  <SCORE.INTRA.SOLV>
19.8315

>  <SCORE.INTRA.SOLV.lig_0>
-122.812

>  <SCORE.INTRA.VDW>
10.1362

>  <SCORE.INTRA.VDW.0>
-7.46208

>  <SCORE.INTRA.norm>
0.368142

>  <SCORE.RESTR>
1.86965

>  <SCORE.RESTR.CAVITY>
1.86965

>  <SCORE.RESTR.norm>
0.038156

>  <SCORE.SYSTEM>
0

>  <SCORE.SYSTEM.CONST>
0

>  <SCORE.SYSTEM.DIHEDRAL>
0

>  <SCORE.SYSTEM.SOLV>
0

>  <SCORE.SYSTEM.norm>
0

>  <SCORE.heavy>
49

>  <SCORE.norm>
0.525491

>  <RMSD>
11.590

$$$$
ligand
 OpenBabel11021811513D
libRbt.so/2013.1/901 2013/11/27
 49 52  0  0  0  0  0  0  0  0999 V2000
   27.2334   15.4517   12.7507 C   0  0  2  0  0  0  0  0  0  0  0  0
   26.2650   14.6623   13.3760 O   0  0  0  0  0  0  0  0  0  0  0  0
   27.6956   16.5972   13.7261 C   0  0  2  0  0  0  0  0  0  0  0  0
   28.2575   15.9750   14.9948 N   0  0  0  0  0  0  0  0  0  0  0  0
   28.3221    8.7255   10.5559 O   0  0  0  0  0  0  0  0  0  0  0  0
   26.5160   17.5475   14.0383 C   0  0  2  0  0  0  0  0  0  0  0  0
   28.9121    4.4413   13.2465 N   0  0  0  0  0  0  0  0  0  0  0  0
   25.9528   18.1478   12.7406 C   0  0  2  0  0  0  0  0  0  0  0  0
   25.4772   17.0207   11.7291 C   0  0  2  0  0  0  0  0  0  0  0  0
   26.6577   16.0769   11.4927 O   0  0  0  0  0  0  0  0  0  0  0  0
   24.9599   17.6340   10.3957 C   0  0  0  0  0  0  0  0  0  0  0  0
   23.9745   18.6401   10.5716 N   0  0  0  0  0  0  0  0  0  0  0  0
   27.1421   10.4988   12.5402 C   0  0  2  0  0  0  0  0  0  0  0  0
   27.0702    9.0107   12.6270 N   0  0  0  0  0  0  0  0  0  0  0  0
   27.1894   11.0550   14.0452 C   0  0  0  0  0  0  0  0  0  0  0  0
   27.2914   12.6259   14.0466 C   0  0  2  0  0  0  0  0  0  0  0  0
   27.3152   13.1492   15.4205 N   0  0  0  0  0  0  0  0  0  0  0  0
   26.0803   13.2403   13.3169 C   0  0  2  0  0  0  0  0  0  0  0  0
   26.0017   12.7084   11.8290 C   0  0  2  0  0  0  0  0  0  0  0  0
   24.8234   13.3560   11.2195 O   0  0  0  0  0  0  0  0  0  0  0  0
   25.8319   11.1047   11.8570 C   0  0  1  0  0  0  0  0  0  0  0  0
   25.7568   10.6574   10.5402 O   0  0  0  0  0  0  0  0  0  0  0  0
   24.5766   13.4925    9.9612 C   0  0  1  0  0  0  0  0  0  0  0  0
   23.4196   12.6141    9.4008 C   0  0  2  0  0  0  0  0  0  0  0  0
   23.9661   11.4155    8.9483 O   0  0  0  0  0  0  0  0  0  0  0  0
   23.0086   13.4800    8.2831 C   0  0  1  0  0  0  0  0  0  0  0  0
   23.0888   14.9625    8.7620 C   0  0  2  0  0  0  0  0  0  0  0  0
   24.2553   14.8585    9.5411 O   0  0  0  0  0  0  0  0  0  0  0  0
   21.8509   15.5796    9.4143 C   0  0  0  0  0  0  0  0  0  0  0  0
   20.8117   15.4875    8.4582 O   0  0  0  0  0  0  0  0  0  0  0  0
   24.9465   14.0786    6.9012 C   0  0  2  0  0  0  0  0  0  0  0  0
   23.9456   13.1846    7.1513 O   0  0  0  0  0  0  0  0  0  0  0  0
   25.3470   14.0871    5.4552 C   0  0  1  0  0  0  0  0  0  0  0  0
   28.2073   14.1064    9.9123 N   0  0  0  0  0  0  0  0  0  0  0  0
   26.4366    6.1508   11.0581 O   0  0  0  0  0  0  0  0  0  0  0  0
   26.5380   15.1013    5.2482 C   0  0  2  0  0  0  0  0  0  0  0  0
   27.7877   14.7961    6.1448 C   0  0  1  0  0  0  0  0  0  0  0  0
   27.3797   14.8030    7.5300 C   0  0  1  0  0  0  0  0  0  0  0  0
   26.2339   13.8349    7.7558 O   0  0  0  0  0  0  0  0  0  0  0  0
   28.6107   14.4535    8.4764 C   0  0  0  0  0  0  0  0  0  0  0  0
   25.7916   12.8064    5.0700 N   0  0  0  0  0  0  0  0  0  0  0  0
   26.8861   18.3917   14.7140 O   0  0  0  0  0  0  0  0  0  0  0  0
   28.6934    6.0856   11.3082 C   0  0  0  0  0  0  0  0  0  0  0  0
   28.1776   13.7501    5.8773 O   0  0  0  0  0  0  0  0  0  0  0  0
   26.1693   16.1510    5.5406 O   0  0  0  0  0  0  0  0  0  0  0  0
   27.7241    8.2338   11.5236 C   0  0  0  0  0  0  0  0  0  0  0  0
   28.8197    4.8435   11.8891 C   0  0  0  0  0  0  0  0  0  0  0  0
   27.5729    6.6431   11.7652 C   0  0  1  0  0  0  0  0  0  0  0  0
   26.9393   18.9207   12.1028 F   0  0  0  0  0  0  0  0  0  0  0  0
  1  2  1  1  0  0  0
  1 10  1  0  0  0  0
  1  3  1  0  0  0  0
  3  4  1  1  0  0  0
  3  6  1  0  0  0  0
  5 46  2  0  0  0  0
  6 42  1  1  0  0  0
  6  8  1  0  0  0  0
  7 47  1  0  0  0  0
  8  9  1  0  0  0  0
  8 49  1  6  0  0  0
  9 10  1  0  0  0  0
  9 11  1  6  0  0  0
 11 12  1  0  0  0  0
 13 14  1  1  0  0  0
 13 15  1  0  0  0  0
 13 21  1  0  0  0  0
 14 46  1  0  0  0  0
 15 16  1  0  0  0  0
 16 17  1  1  0  0  0
 16 18  1  0  0  0  0
 18  2  1  6  0  0  0
 18 19  1  0  0  0  0
 19 20  1  1  0  0  0
 19 21  1  0  0  0  0
 21 22  1  6  0  0  0
 23 20  1  1  0  0  0
 23 24  1  0  0  0  0
 23 28  1  0  0  0  0
 24 25  1  6  0  0  0
 24 26  1  0  0  0  0
 26 27  1  0  0  0  0
 26 32  1  6  0  0  0
 27 28  1  0  0  0  0
 27 29  1  1  0  0  0
 29 30  1  0  0  0  0
 31 32  1  6  0  0  0
 31 33  1  0  0  0  0
 31 39  1  0  0  0  0
 33 36  1  0  0  0  0
 33 41  1  1  0  0  0
 34 40  1  0  0  0  0
 35 48  1  0  0  0  0
 36 37  1  0  0  0  0
 36 45  1  1  0  0  0
 37 38  1  0  0  0  0
 37 44  1  6  0  0  0
 38 39  1  0  0  0  0
 38 40  1  1  0  0  0
 43 47  1  0  0  0  0
 46 48  1  0  0  0  0
 48 43  1  6  0  0  0
M  END
>  <CHROM.1>
-141.49473574,67.93409291,-52.18354315,-148.13326397,160.57565697,108.90847306
-102.76789647,-58.71241650,-151.19226021,-165.96563984,-59.43879043,-80.97974897
-86.06864602,26.14720006,13.31613842,10.49575744,-2.41850879,1.23826998,-2.53583547

>  <Name>
ligand

>  <RI>
0

>  <Rbt.Current_Directory>
/home/itssahil/PROJECTS/Mol_Feturizer/New_Systems/rnas/4PDQ

>  <Rbt.Executable>
rbdock ($Id: //depot/dev/client3/rdock/2013.1/src/exe/rbdock.cxx#4 $)

>  <Rbt.Library>
libRbt.so (2013.1, Build901 2013/11/27)

>  <Rbt.Parameter_File>
/export/apps/rDock/src/rDock_2013.1_src/data/scripts/dock_solv.prm

>  <Rbt.Receptor>
prm/blind_docking_60.prm

>  <SCORE>
-6.47359

>  <SCORE.INTER>
-8.95748

>  <SCORE.INTER.CONST>
1

>  <SCORE.INTER.POLAR>
0

>  <SCORE.INTER.ROT>
13

>  <SCORE.INTER.SOLV>
29.599

>  <SCORE.INTER.VDW>
-28.1047

>  <SCORE.INTER.norm>
-0.182806

>  <SCORE.INTRA>
1.53866

>  <SCORE.INTRA.DIHEDRAL>
-6.76416

>  <SCORE.INTRA.DIHEDRAL.0>
34.5115

>  <SCORE.INTRA.POLAR>
0

>  <SCORE.INTRA.POLAR.0>
0

>  <SCORE.INTRA.REPUL>
0

>  <SCORE.INTRA.REPUL.0>
0

>  <SCORE.INTRA.SOLV>
6.82571

>  <SCORE.INTRA.SOLV.lig_0>
-122.812

>  <SCORE.INTRA.VDW>
1.50789

>  <SCORE.INTRA.VDW.0>
-7.46208

>  <SCORE.INTRA.norm>
0.0314012

>  <SCORE.RESTR>
0.945233

>  <SCORE.RESTR.CAVITY>
0.945233

>  <SCORE.RESTR.norm>
0.0192905

>  <SCORE.SYSTEM>
0

>  <SCORE.SYSTEM.CONST>
0

>  <SCORE.SYSTEM.DIHEDRAL>
0

>  <SCORE.SYSTEM.SOLV>
0

>  <SCORE.SYSTEM.norm>
0

>  <SCORE.heavy>
49

>  <SCORE.norm>
-0.132114

>  <RMSD>
11.594

$$$$
ligand
 OpenBabel11021811513D
libRbt.so/2013.1/901 2013/11/27
 49 52  0  0  0  0  0  0  0  0999 V2000
   27.1182    8.6454   10.7920 C   0  0  2  0  0  0  0  0  0  0  0  0
   28.1260    9.4856   11.2721 O   0  0  0  0  0  0  0  0  0  0  0  0
   26.0741    8.3619   11.9351 C   0  0  2  0  0  0  0  0  0  0  0  0
   25.4836    9.6806   12.4091 N   0  0  0  0  0  0  0  0  0  0  0  0
   27.7262   15.3484   12.2902 O   0  0  0  0  0  0  0  0  0  0  0  0
   26.7439    7.5931   13.0980 C   0  0  2  0  0  0  0  0  0  0  0  0
   26.3026   18.0859   11.6975 N   0  0  0  0  0  0  0  0  0  0  0  0
   27.3499    6.2750   12.5911 C   0  0  2  0  0  0  0  0  0  0  0  0
   28.4083    6.5210   11.4339 C   0  0  2  0  0  0  0  0  0  0  0  0
   27.7177    7.3283   10.3332 O   0  0  0  0  0  0  0  0  0  0  0  0
   28.9763    5.1791   10.8876 C   0  0  0  0  0  0  0  0  0  0  0  0
   29.7755    5.3261    9.7241 N   0  0  0  0  0  0  0  0  0  0  0  0
   26.3986   12.9397   13.2439 C   0  0  2  0  0  0  0  0  0  0  0  0
   26.3207   14.2514   13.9512 N   0  0  0  0  0  0  0  0  0  0  0  0
   27.5583   12.0897   13.9575 C   0  0  0  0  0  0  0  0  0  0  0  0
   27.6926   10.6725   13.2854 C   0  0  2  0  0  0  0  0  0  0  0  0
   28.7660    9.8914   13.9174 N   0  0  0  0  0  0  0  0  0  0  0  0
   28.0220   10.8213   11.7867 C   0  0  2  0  0  0  0  0  0  0  0  0
   26.8985   11.6595   11.0531 C   0  0  2  0  0  0  0  0  0  0  0  0
   27.3002   11.7378    9.6346 O   0  0  0  0  0  0  0  0  0  0  0  0
   26.8264   13.1277   11.7168 C   0  0  1  0  0  0  0  0  0  0  0  0
   25.8388   13.8514   11.0531 O   0  0  0  0  0  0  0  0  0  0  0  0
   27.0554   12.6988    8.8104 C   0  0  1  0  0  0  0  0  0  0  0  0
   27.6912   12.5540    7.3964 C   0  0  2  0  0  0  0  0  0  0  0  0
   28.9392   13.1719    7.4176 O   0  0  0  0  0  0  0  0  0  0  0  0
   26.7083   13.3406    6.6327 C   0  0  1  0  0  0  0  0  0  0  0  0
   25.2896   13.0314    7.2030 C   0  0  2  0  0  0  0  0  0  0  0  0
   25.6339   12.9524    8.5645 O   0  0  0  0  0  0  0  0  0  0  0  0
   24.5061   11.8651    6.5990 C   0  0  0  0  0  0  0  0  0  0  0  0
   23.5984   11.4383    7.5973 O   0  0  0  0  0  0  0  0  0  0  0  0
   26.1478   15.7288    6.5540 C   0  0  2  0  0  0  0  0  0  0  0  0
   27.0979   14.7787    6.7953 O   0  0  0  0  0  0  0  0  0  0  0  0
   26.6978   16.8944    5.7860 C   0  0  1  0  0  0  0  0  0  0  0  0
   22.4372   18.5148    8.9168 N   0  0  0  0  0  0  0  0  0  0  0  0
   27.1096   16.4719   15.5858 O   0  0  0  0  0  0  0  0  0  0  0  0
   25.5630   17.9728    5.5880 C   0  0  2  0  0  0  0  0  0  0  0  0
   24.9284   18.4729    6.9320 C   0  0  1  0  0  0  0  0  0  0  0  0
   24.3981   17.3361    7.6476 C   0  0  1  0  0  0  0  0  0  0  0  0
   25.4709   16.2830    7.8509 O   0  0  0  0  0  0  0  0  0  0  0  0
   23.7816   17.7924    9.0421 C   0  0  0  0  0  0  0  0  0  0  0  0
   27.7499   17.4943    6.5068 N   0  0  0  0  0  0  0  0  0  0  0  0
   25.9576    7.3640   13.8952 O   0  0  0  0  0  0  0  0  0  0  0  0
   27.7600   17.6251   13.7400 C   0  0  0  0  0  0  0  0  0  0  0  0
   25.7553   18.9572    7.5638 O   0  0  0  0  0  0  0  0  0  0  0  0
   24.7135   17.4913    4.9799 O   0  0  0  0  0  0  0  0  0  0  0  0
   27.0635   15.3997   13.3361 C   0  0  0  0  0  0  0  0  0  0  0  0
   27.1289   18.4128   12.8034 C   0  0  0  0  0  0  0  0  0  0  0  0
   26.8728   16.7476   14.2069 C   0  0  1  0  0  0  0  0  0  0  0  0
   26.3342    5.4438   12.0862 F   0  0  0  0  0  0  0  0  0  0  0  0
  1  2  1  1  0  0  0
  1 10  1  0  0  0  0
  1  3  1  0  0  0  0
  3  4  1  1  0  0  0
  3  6  1  0  0  0  0
  5 46  2  0  0  0  0
  6 42  1  1  0  0  0
  6  8  1  0  0  0  0
  7 47  1  0  0  0  0
  8  9  1  0  0  0  0
  8 49  1  6  0  0  0
  9 10  1  0  0  0  0
  9 11  1  6  0  0  0
 11 12  1  0  0  0  0
 13 14  1  1  0  0  0
 13 15  1  0  0  0  0
 13 21  1  0  0  0  0
 14 46  1  0  0  0  0
 15 16  1  0  0  0  0
 16 17  1  1  0  0  0
 16 18  1  0  0  0  0
 18  2  1  6  0  0  0
 18 19  1  0  0  0  0
 19 20  1  6  0  0  0
 19 21  1  0  0  0  0
 21 22  1  6  0  0  0
 23 20  1  1  0  0  0
 23 24  1  0  0  0  0
 23 28  1  0  0  0  0
 24 25  1  1  0  0  0
 24 26  1  0  0  0  0
 26 27  1  0  0  0  0
 26 32  1  1  0  0  0
 27 28  1  0  0  0  0
 27 29  1  6  0  0  0
 29 30  1  0  0  0  0
 31 32  1  1  0  0  0
 31 33  1  0  0  0  0
 31 39  1  0  0  0  0
 33 36  1  0  0  0  0
 33 41  1  1  0  0  0
 34 40  1  0  0  0  0
 35 48  1  0  0  0  0
 36 37  1  0  0  0  0
 36 45  1  6  0  0  0
 37 38  1  0  0  0  0
 37 44  1  1  0  0  0
 38 39  1  0  0  0  0
 38 40  1  1  0  0  0
 43 47  1  0  0  0  0
 46 48  1  0  0  0  0
 48 43  1  6  0  0  0
M  END
>  <CHROM.1>
-61.06158717,86.07600933,171.22835217,96.56446892,-149.03164729,175.84549088
-159.82581206,155.30551733,-138.07316249,74.34925723,-48.24881864,-145.71586154
-132.68138274,26.59980684,12.92671669,10.23706669,0.46528499,1.37306834,-2.41510447

>  <Name>
ligand

>  <RI>
0

>  <Rbt.Current_Directory>
/home/itssahil/PROJECTS/Mol_Feturizer/New_Systems/rnas/4PDQ

>  <Rbt.Executable>
rbdock ($Id: //depot/dev/client3/rdock/2013.1/src/exe/rbdock.cxx#4 $)

>  <Rbt.Library>
libRbt.so (2013.1, Build901 2013/11/27)

>  <Rbt.Parameter_File>
/export/apps/rDock/src/rDock_2013.1_src/data/scripts/dock_solv.prm

>  <Rbt.Receptor>
prm/blind_docking_60.prm

>  <SCORE>
10.01

>  <SCORE.INTER>
0.360727

>  <SCORE.INTER.CONST>
1

>  <SCORE.INTER.POLAR>
0

>  <SCORE.INTER.ROT>
13

>  <SCORE.INTER.SOLV>
36.0857

>  <SCORE.INTER.VDW>
-24.0548

>  <SCORE.INTER.norm>
0.00736177

>  <SCORE.INTRA>
7.60793

>  <SCORE.INTRA.DIHEDRAL>
-11.9124

>  <SCORE.INTRA.DIHEDRAL.0>
34.5115

>  <SCORE.INTRA.POLAR>
0

>  <SCORE.INTRA.POLAR.0>
0

>  <SCORE.INTRA.REPUL>
0.3687

>  <SCORE.INTRA.REPUL.0>
0

>  <SCORE.INTRA.SOLV>
6.82702

>  <SCORE.INTRA.SOLV.lig_0>
-122.812

>  <SCORE.INTRA.VDW>
8.30715

>  <SCORE.INTRA.VDW.0>
-7.46208

>  <SCORE.INTRA.norm>
0.155264

>  <SCORE.RESTR>
2.0413

>  <SCORE.RESTR.CAVITY>
2.0413

>  <SCORE.RESTR.norm>
0.0416591

>  <SCORE.SYSTEM>
0

>  <SCORE.SYSTEM.CONST>
0

>  <SCORE.SYSTEM.DIHEDRAL>
0

>  <SCORE.SYSTEM.SOLV>
0

>  <SCORE.SYSTEM.norm>
0

>  <SCORE.heavy>
49

>  <SCORE.norm>
0.204285

>  <RMSD>
11.624

$$$$
ligand
 OpenBabel11021811513D
libRbt.so/2013.1/901 2013/11/27
 49 52  0  0  0  0  0  0  0  0999 V2000
   27.1929   16.0865   11.6843 C   0  0  2  0  0  0  0  0  0  0  0  0
   26.6574   14.9933   12.3699 O   0  0  0  0  0  0  0  0  0  0  0  0
   27.7719   17.1269   12.7137 C   0  0  2  0  0  0  0  0  0  0  0  0
   28.8440   16.4521   13.5548 N   0  0  0  0  0  0  0  0  0  0  0  0
   27.7482    8.5060   12.8343 O   0  0  0  0  0  0  0  0  0  0  0  0
   26.6384   17.6988   13.5969 C   0  0  2  0  0  0  0  0  0  0  0  0
   29.3683    4.6932   11.4846 N   0  0  0  0  0  0  0  0  0  0  0  0
   25.5585   18.3573   12.7242 C   0  0  2  0  0  0  0  0  0  0  0  0
   24.9512   17.3373   11.6704 C   0  0  2  0  0  0  0  0  0  0  0  0
   26.1114   16.7590   10.8580 O   0  0  0  0  0  0  0  0  0  0  0  0
   23.8987   18.0254   10.7537 C   0  0  0  0  0  0  0  0  0  0  0  0
   22.9487   17.1292   10.1984 N   0  0  0  0  0  0  0  0  0  0  0  0
   27.0128   10.8237   11.2336 C   0  0  2  0  0  0  0  0  0  0  0  0
   26.6069    9.4295   10.8894 N   0  0  0  0  0  0  0  0  0  0  0  0
   26.1864   11.2432   12.5442 C   0  0  0  0  0  0  0  0  0  0  0  0
   26.5741   12.7012   12.9940 C   0  0  2  0  0  0  0  0  0  0  0  0
   25.8084   13.1049   14.1825 N   0  0  0  0  0  0  0  0  0  0  0  0
   26.2758   13.7059   11.8632 C   0  0  2  0  0  0  0  0  0  0  0  0
   27.0730   13.3181   10.5529 C   0  0  2  0  0  0  0  0  0  0  0  0
   26.7278   14.3366    9.5416 O   0  0  0  0  0  0  0  0  0  0  0  0
   26.6099   11.8483   10.0768 C   0  0  1  0  0  0  0  0  0  0  0  0
   27.3160   11.5290    8.9196 O   0  0  0  0  0  0  0  0  0  0  0  0
   25.5629   14.5685    9.0397 C   0  0  1  0  0  0  0  0  0  0  0  0
   24.9144   13.3849    8.2631 C   0  0  2  0  0  0  0  0  0  0  0  0
   25.2806   13.4936    6.9237 O   0  0  0  0  0  0  0  0  0  0  0  0
   23.4995   13.7363    8.4698 C   0  0  1  0  0  0  0  0  0  0  0  0
   23.3400   14.2741    9.9254 C   0  0  2  0  0  0  0  0  0  0  0  0
   24.5478   14.9902   10.0079 O   0  0  0  0  0  0  0  0  0  0  0  0
   23.0312   13.2704   11.0373 C   0  0  0  0  0  0  0  0  0  0  0  0
   22.8764   14.0276   12.2228 O   0  0  0  0  0  0  0  0  0  0  0  0
   23.8051   15.9658    7.4904 C   0  0  2  0  0  0  0  0  0  0  0  0
   23.1618   14.7632    7.4318 O   0  0  0  0  0  0  0  0  0  0  0  0
   23.0396   17.0498    6.7903 C   0  0  1  0  0  0  0  0  0  0  0  0
   28.1580   15.7460    6.7174 N   0  0  0  0  0  0  0  0  0  0  0  0
   25.4370    7.0628   10.4261 O   0  0  0  0  0  0  0  0  0  0  0  0
   23.8621   18.3951    6.8528 C   0  0  2  0  0  0  0  0  0  0  0  0
   25.3021   18.2813    6.2426 C   0  0  1  0  0  0  0  0  0  0  0  0
   26.0214   17.2400    6.9380 C   0  0  1  0  0  0  0  0  0  0  0  0
   25.2505   15.9343    6.8929 O   0  0  0  0  0  0  0  0  0  0  0  0
   27.4773   17.0591    6.3209 C   0  0  0  0  0  0  0  0  0  0  0  0
   22.8558   16.7125    5.4343 N   0  0  0  0  0  0  0  0  0  0  0  0
   27.0769   18.4800   14.3067 O   0  0  0  0  0  0  0  0  0  0  0  0
   27.5653    6.3153   10.6932 C   0  0  0  0  0  0  0  0  0  0  0  0
   25.2040   17.9903    5.1365 O   0  0  0  0  0  0  0  0  0  0  0  0
   23.9931   18.6837    7.9585 O   0  0  0  0  0  0  0  0  0  0  0  0
   27.0680    8.3407   11.8117 C   0  0  0  0  0  0  0  0  0  0  0  0
   28.2203    5.5180   11.6050 C   0  0  0  0  0  0  0  0  0  0  0  0
   26.5399    6.8966   11.3145 C   0  0  1  0  0  0  0  0  0  0  0  0
   26.1090   19.4412   12.0175 F   0  0  0  0  0  0  0  0  0  0  0  0
  1  2  1  1  0  0  0
  1 10  1  0  0  0  0
  1  3  1  0  0  0  0
  3  4  1  1  0  0  0
  3  6  1  0  0  0  0
  5 46  2  0  0  0  0
  6 42  1  1  0  0  0
  6  8  1  0  0  0  0
  7 47  1  0  0  0  0
  8  9  1  0  0  0  0
  8 49  1  6  0  0  0
  9 10  1  0  0  0  0
  9 11  1  6  0  0  0
 11 12  1  0  0  0  0
 13 14  1  6  0  0  0
 13 15  1  0  0  0  0
 13 21  1  0  0  0  0
 14 46  1  0  0  0  0
 15 16  1  0  0  0  0
 16 17  1  1  0  0  0
 16 18  1  0  0  0  0
 18  2  1  1  0  0  0
 18 19  1  0  0  0  0
 19 20  1  6  0  0  0
 19 21  1  0  0  0  0
 21 22  1  6  0  0  0
 23 20  1  1  0  0  0
 23 24  1  0  0  0  0
 23 28  1  0  0  0  0
 24 25  1  6  0  0  0
 24 26  1  0  0  0  0
 26 27  1  0  0  0  0
 26 32  1  6  0  0  0
 27 28  1  0  0  0  0
 27 29  1  1  0  0  0
 29 30  1  0  0  0  0
 31 32  1  6  0  0  0
 31 33  1  0  0  0  0
 31 39  1  0  0  0  0
 33 36  1  0  0  0  0
 33 41  1  6  0  0  0
 34 40  1  0  0  0  0
 35 48  1  0  0  0  0
 36 37  1  0  0  0  0
 36 45  1  1  0  0  0
 37 38  1  0  0  0  0
 37 44  1  6  0  0  0
 38 39  1  0  0  0  0
 38 40  1  6  0  0  0
 43 47  1  0  0  0  0
 46 48  1  0  0  0  0
 48 43  1  6  0  0  0
M  END
>  <CHROM.1>
-166.01157860,146.55288551,-155.36259713,-70.36297705,-63.18659236,-61.21140038
-64.21442499,-177.23184950,-157.61890941,-163.82770016,-179.44867084,-146.12219867
159.70249304,25.77157137,14.18106621,10.10747615,-2.29758885,1.22940806,-2.72411365

>  <Name>
ligand

>  <RI>
0

>  <Rbt.Current_Directory>
/home/itssahil/PROJECTS/Mol_Feturizer/New_Systems/rnas/4PDQ

>  <Rbt.Executable>
rbdock ($Id: //depot/dev/client3/rdock/2013.1/src/exe/rbdock.cxx#4 $)

>  <Rbt.Library>
libRbt.so (2013.1, Build901 2013/11/27)

>  <Rbt.Parameter_File>
/export/apps/rDock/src/rDock_2013.1_src/data/scripts/dock_solv.prm

>  <Rbt.Receptor>
prm/blind_docking_100.prm

>  <SCORE>
1.7505

>  <SCORE.INTER>
-1.67422

>  <SCORE.INTER.CONST>
1

>  <SCORE.INTER.POLAR>
0

>  <SCORE.INTER.ROT>
13

>  <SCORE.INTER.SOLV>
34.2763

>  <SCORE.INTER.VDW>
-24.8082

>  <SCORE.INTER.norm>
-0.0341678

>  <SCORE.INTRA>
-1.17755

>  <SCORE.INTRA.DIHEDRAL>
-18.9026

>  <SCORE.INTRA.DIHEDRAL.0>
34.5115

>  <SCORE.INTRA.POLAR>
0

>  <SCORE.INTRA.POLAR.0>
0

>  <SCORE.INTRA.REPUL>
0.0567942

>  <SCORE.INTRA.REPUL.0>
0

>  <SCORE.INTRA.SOLV>
7.65984

>  <SCORE.INTRA.SOLV.lig_0>
-122.812

>  <SCORE.INTRA.VDW>
4.15988

>  <SCORE.INTRA.VDW.0>
-7.46208

>  <SCORE.INTRA.norm>
-0.0240317

>  <SCORE.RESTR>
4.60227

>  <SCORE.RESTR.CAVITY>
4.60227

>  <SCORE.RESTR.norm>
0.0939239

>  <SCORE.SYSTEM>
0

>  <SCORE.SYSTEM.CONST>
0

>  <SCORE.SYSTEM.DIHEDRAL>
0

>  <SCORE.SYSTEM.SOLV>
0

>  <SCORE.SYSTEM.norm>
0

>  <SCORE.heavy>
49

>  <SCORE.norm>
0.0357245

>  <RMSD>
11.628

$$$$
ligand
 OpenBabel11021811513D
libRbt.so/2013.1/901 2013/11/27
 49 52  0  0  0  0  0  0  0  0999 V2000
   26.4591    9.3466   10.6522 C   0  0  2  0  0  0  0  0  0  0  0  0
   25.6968   10.4101   11.1420 O   0  0  0  0  0  0  0  0  0  0  0  0
   25.5184    8.1315   10.3120 C   0  0  2  0  0  0  0  0  0  0  0  0
   24.4932    8.5692    9.2777 N   0  0  0  0  0  0  0  0  0  0  0  0
   27.8643   15.7448   11.3136 O   0  0  0  0  0  0  0  0  0  0  0  0
   24.8353    7.6033   11.5951 C   0  0  2  0  0  0  0  0  0  0  0  0
   30.1282   19.4837   13.5292 N   0  0  0  0  0  0  0  0  0  0  0  0
   25.8904    7.1863   12.6317 C   0  0  2  0  0  0  0  0  0  0  0  0
   26.8608    8.3875   12.9992 C   0  0  2  0  0  0  0  0  0  0  0  0
   27.4703    8.9107   11.6973 O   0  0  0  0  0  0  0  0  0  0  0  0
   27.9602    7.9431   14.0069 C   0  0  0  0  0  0  0  0  0  0  0  0
   28.5782    6.7097   13.6742 N   0  0  0  0  0  0  0  0  0  0  0  0
   25.8265   14.3799   12.8817 C   0  0  2  0  0  0  0  0  0  0  0  0
   26.3244   15.7498   13.2021 N   0  0  0  0  0  0  0  0  0  0  0  0
   27.0705   13.3785   13.0438 C   0  0  0  0  0  0  0  0  0  0  0  0
   26.6255   11.8981   12.7463 C   0  0  2  0  0  0  0  0  0  0  0  0
   27.7616   10.9732   12.8717 N   0  0  0  0  0  0  0  0  0  0  0  0
   26.0676   11.7859   11.3134 C   0  0  2  0  0  0  0  0  0  0  0  0
   24.8404   12.7652   11.1185 C   0  0  2  0  0  0  0  0  0  0  0  0
   24.3781   12.5780    9.7290 O   0  0  0  0  0  0  0  0  0  0  0  0
   25.3379   14.2797   11.3646 C   0  0  1  0  0  0  0  0  0  0  0  0
   24.2468   15.1256   11.1809 O   0  0  0  0  0  0  0  0  0  0  0  0
   24.7243   13.2679    8.6960 C   0  0  1  0  0  0  0  0  0  0  0  0
   24.1611   12.7706    7.3322 C   0  0  2  0  0  0  0  0  0  0  0  0
   25.0804   11.8799    6.7831 O   0  0  0  0  0  0  0  0  0  0  0  0
   24.1558   14.0567    6.6153 C   0  0  1  0  0  0  0  0  0  0  0  0
   23.7086   15.1682    7.6144 C   0  0  2  0  0  0  0  0  0  0  0  0
   24.3724   14.6885    8.7579 O   0  0  0  0  0  0  0  0  0  0  0  0
   22.2149   15.4735    7.7351 C   0  0  0  0  0  0  0  0  0  0  0  0
   22.1026   16.5468    8.6505 O   0  0  0  0  0  0  0  0  0  0  0  0
   25.9264   15.5320    5.7717 C   0  0  2  0  0  0  0  0  0  0  0  0
   25.5495   14.2628    6.1042 O   0  0  0  0  0  0  0  0  0  0  0  0
   26.9203   16.0981    6.7427 C   0  0  1  0  0  0  0  0  0  0  0  0
   23.0844   19.0878    6.5466 N   0  0  0  0  0  0  0  0  0  0  0  0
   26.6484   18.6338   12.8549 O   0  0  0  0  0  0  0  0  0  0  0  0
   27.2715   17.5796    6.3281 C   0  0  2  0  0  0  0  0  0  0  0  0
   26.0208   18.5211    6.2373 C   0  0  1  0  0  0  0  0  0  0  0  0
   25.0845   17.9613    5.2910 C   0  0  1  0  0  0  0  0  0  0  0  0
   24.7304   16.5350    5.6674 O   0  0  0  0  0  0  0  0  0  0  0  0
   23.7766   18.8636    5.1991 C   0  0  0  0  0  0  0  0  0  0  0  0
   26.3669   16.1264    8.0386 N   0  0  0  0  0  0  0  0  0  0  0  0
   24.1909    6.6978   11.3287 O   0  0  0  0  0  0  0  0  0  0  0  0
   28.3842   17.6725   13.9607 C   0  0  0  0  0  0  0  0  0  0  0  0
   25.5241   18.5629    7.2713 O   0  0  0  0  0  0  0  0  0  0  0  0
   27.7445   17.5556    5.2798 O   0  0  0  0  0  0  0  0  0  0  0  0
   27.3806   16.3165   12.3010 C   0  0  0  0  0  0  0  0  0  0  0  0
   29.6568   18.1915   13.8766 C   0  0  0  0  0  0  0  0  0  0  0  0
   27.8049   17.8042   12.7680 C   0  0  1  0  0  0  0  0  0  0  0  0
   26.6707    6.1326   12.1237 F   0  0  0  0  0  0  0  0  0  0  0  0
  1  2  1  1  0  0  0
  1 10  1  0  0  0  0
  1  3  1  0  0  0  0
  3  4  1  6  0  0  0
  3  6  1  0  0  0  0
  5 46  2  0  0  0  0
  6 42  1  6  0  0  0
  6  8  1  0  0  0  0
  7 47  1  0  0  0  0
  8  9  1  0  0  0  0
  8 49  1  6  0  0  0
  9 10  1  0  0  0  0
  9 11  1  1  0  0  0
 11 12  1  0  0  0  0
 13 14  1  6  0  0  0
 13 15  1  0  0  0  0
 13 21  1  0  0  0  0
 14 46  1  0  0  0  0
 15 16  1  0  0  0  0
 16 17  1  6  0  0  0
 16 18  1  0  0  0  0
 18  2  1  1  0  0  0
 18 19  1  0  0  0  0
 19 20  1  6  0  0  0
 19 21  1  0  0  0  0
 21 22  1  1  0  0  0
 23 20  1  1  0  0  0
 23 24  1  0  0  0  0
 23 28  1  0  0  0  0
 24 25  1  6  0  0  0
 24 26  1  0  0  0  0
 26 27  1  0  0  0  0
 26 32  1  1  0  0  0
 27 28  1  0  0  0  0
 27 29  1  1  0  0  0
 29 30  1  0  0  0  0
 31 32  1  1  0  0  0
 31 33  1  0  0  0  0
 31 39  1  0  0  0  0
 33 36  1  0  0  0  0
 33 41  1  1  0  0  0
 34 40  1  0  0  0  0
 35 48  1  0  0  0  0
 36 37  1  0  0  0  0
 36 45  1  6  0  0  0
 37 38  1  0  0  0  0
 37 44  1  1  0  0  0
 38 39  1  0  0  0  0
 38 40  1  1  0  0  0
 43 47  1  0  0  0  0
 46 48  1  0  0  0  0
 48 43  1  1  0  0  0
M  END
>  <CHROM.1>
-165.58378366,-90.83210308,45.79965503,63.38964307,-93.95215992,175.30458330
-160.14926484,-177.39363308,109.34786026,-55.77406409,58.49487020,-118.48799849
124.63765203,25.89484468,13.71086949,9.94964100,1.40759855,1.06758142,2.82955277

>  <Name>
ligand

>  <RI>
0

>  <Rbt.Current_Directory>
/home/itssahil/PROJECTS/Mol_Feturizer/New_Systems/rnas/4PDQ

>  <Rbt.Executable>
rbdock ($Id: //depot/dev/client3/rdock/2013.1/src/exe/rbdock.cxx#4 $)

>  <Rbt.Library>
libRbt.so (2013.1, Build901 2013/11/27)

>  <Rbt.Parameter_File>
/export/apps/rDock/src/rDock_2013.1_src/data/scripts/dock_solv.prm

>  <Rbt.Receptor>
prm/blind_docking_60.prm

>  <SCORE>
8.10568

>  <SCORE.INTER>
-2.51707

>  <SCORE.INTER.CONST>
1

>  <SCORE.INTER.POLAR>
0

>  <SCORE.INTER.ROT>
13

>  <SCORE.INTER.SOLV>
27.8503

>  <SCORE.INTER.VDW>
-23.2282

>  <SCORE.INTER.norm>
-0.0513688

>  <SCORE.INTRA>
5.94135

>  <SCORE.INTRA.DIHEDRAL>
-10.1156

>  <SCORE.INTRA.DIHEDRAL.0>
34.5115

>  <SCORE.INTRA.POLAR>
0

>  <SCORE.INTRA.POLAR.0>
0

>  <SCORE.INTRA.REPUL>
0.00900956

>  <SCORE.INTRA.REPUL.0>
0

>  <SCORE.INTRA.SOLV>
9.81856

>  <SCORE.INTRA.SOLV.lig_0>
-122.812

>  <SCORE.INTRA.VDW>
6.0448

>  <SCORE.INTRA.VDW.0>
-7.46208

>  <SCORE.INTRA.norm>
0.121252

>  <SCORE.RESTR>
4.6814

>  <SCORE.RESTR.CAVITY>
4.6814

>  <SCORE.RESTR.norm>
0.0955387

>  <SCORE.SYSTEM>
0

>  <SCORE.SYSTEM.CONST>
0

>  <SCORE.SYSTEM.DIHEDRAL>
0

>  <SCORE.SYSTEM.SOLV>
0

>  <SCORE.SYSTEM.norm>
0

>  <SCORE.heavy>
49

>  <SCORE.norm>
0.165422

>  <RMSD>
11.634

$$$$
ligand
 OpenBabel11021811513D
libRbt.so/2013.1/901 2013/11/27
 49 52  0  0  0  0  0  0  0  0999 V2000
   25.8299    9.6712   12.8911 C   0  0  2  0  0  0  0  0  0  0  0  0
   25.4401   11.0068   13.0184 O   0  0  0  0  0  0  0  0  0  0  0  0
   27.3320    9.5986   12.4267 C   0  0  2  0  0  0  0  0  0  0  0  0
   28.2047   10.3102   13.4487 N   0  0  0  0  0  0  0  0  0  0  0  0
   26.2015   17.3528   15.1502 O   0  0  0  0  0  0  0  0  0  0  0  0
   27.4913   10.2190   11.0190 C   0  0  2  0  0  0  0  0  0  0  0  0
   30.4924   20.4398   13.8226 N   0  0  0  0  0  0  0  0  0  0  0  0
   26.5858    9.4970   10.0089 C   0  0  2  0  0  0  0  0  0  0  0  0
   25.0605    9.5476   10.4452 C   0  0  2  0  0  0  0  0  0  0  0  0
   24.9601    8.9746   11.8601 O   0  0  0  0  0  0  0  0  0  0  0  0
   24.1569    8.7672    9.4472 C   0  0  0  0  0  0  0  0  0  0  0  0
   22.8181    9.2356    9.3990 N   0  0  0  0  0  0  0  0  0  0  0  0
   26.5188   15.2022   13.2140 C   0  0  2  0  0  0  0  0  0  0  0  0
   27.3713   16.4270   13.2234 N   0  0  0  0  0  0  0  0  0  0  0  0
   27.2202   14.1347   14.1860 C   0  0  0  0  0  0  0  0  0  0  0  0
   26.3685   12.8125   14.2545 C   0  0  2  0  0  0  0  0  0  0  0  0
   27.0114   11.8185   15.1266 N   0  0  0  0  0  0  0  0  0  0  0  0
   26.2223   12.1981   12.8481 C   0  0  2  0  0  0  0  0  0  0  0  0
   25.5368   13.2281   11.8621 C   0  0  2  0  0  0  0  0  0  0  0  0
   25.4366   12.5471   10.5561 O   0  0  0  0  0  0  0  0  0  0  0  0
   26.4616   14.5456   11.7593 C   0  0  1  0  0  0  0  0  0  0  0  0
   25.8461   15.4353   10.8822 O   0  0  0  0  0  0  0  0  0  0  0  0
   24.9285   13.0217    9.4701 C   0  0  1  0  0  0  0  0  0  0  0  0
   25.9509   13.4381    8.3720 C   0  0  2  0  0  0  0  0  0  0  0  0
   26.2669   14.7812    8.5616 O   0  0  0  0  0  0  0  0  0  0  0  0
   25.0946   13.2430    7.1902 C   0  0  1  0  0  0  0  0  0  0  0  0
   24.2351   11.9614    7.4189 C   0  0  2  0  0  0  0  0  0  0  0  0
   23.9830   12.1318    8.7922 O   0  0  0  0  0  0  0  0  0  0  0  0
   24.8050   10.6177    6.9621 C   0  0  0  0  0  0  0  0  0  0  0  0
   24.8361   10.6607    5.5480 O   0  0  0  0  0  0  0  0  0  0  0  0
   23.3267   14.7282    8.0222 C   0  0  2  0  0  0  0  0  0  0  0  0
   24.2632   14.4832    7.0597 O   0  0  0  0  0  0  0  0  0  0  0  0
   21.9837   15.0476    7.4344 C   0  0  1  0  0  0  0  0  0  0  0  0
   22.3232   17.7140   12.1940 N   0  0  0  0  0  0  0  0  0  0  0  0
   27.9328   19.5576   15.3015 O   0  0  0  0  0  0  0  0  0  0  0  0
   20.9667   15.3689    8.5974 C   0  0  2  0  0  0  0  0  0  0  0  0
   21.4297   16.5387    9.5332 C   0  0  1  0  0  0  0  0  0  0  0  0
   22.7179   16.2043   10.0938 C   0  0  1  0  0  0  0  0  0  0  0  0
   23.7152   15.8903    8.9948 O   0  0  0  0  0  0  0  0  0  0  0  0
   23.2483   17.3861   11.0185 C   0  0  0  0  0  0  0  0  0  0  0  0
   22.0767   16.1856    6.6083 N   0  0  0  0  0  0  0  0  0  0  0  0
   28.5805   10.1176   10.6879 O   0  0  0  0  0  0  0  0  0  0  0  0
   29.3224   18.1939   14.1314 C   0  0  0  0  0  0  0  0  0  0  0  0
   21.5360   17.4891    8.8983 O   0  0  0  0  0  0  0  0  0  0  0  0
   20.8723   14.4329    9.2594 O   0  0  0  0  0  0  0  0  0  0  0  0
   27.0815   17.4480   14.2829 C   0  0  0  0  0  0  0  0  0  0  0  0
   30.1415   19.1033   13.5006 C   0  0  0  0  0  0  0  0  0  0  0  0
   28.0921   18.7040   14.1704 C   0  0  1  0  0  0  0  0  0  0  0  0
   26.9667    8.1475    9.9035 F   0  0  0  0  0  0  0  0  0  0  0  0
  1  2  1  6  0  0  0
  1 10  1  0  0  0  0
  1  3  1  0  0  0  0
  3  4  1  1  0  0  0
  3  6  1  0  0  0  0
  5 46  2  0  0  0  0
  6 42  1  6  0  0  0
  6  8  1  0  0  0  0
  7 47  1  0  0  0  0
  8  9  1  0  0  0  0
  8 49  1  1  0  0  0
  9 10  1  0  0  0  0
  9 11  1  6  0  0  0
 11 12  1  0  0  0  0
 13 14  1  6  0  0  0
 13 15  1  0  0  0  0
 13 21  1  0  0  0  0
 14 46  1  0  0  0  0
 15 16  1  0  0  0  0
 16 17  1  1  0  0  0
 16 18  1  0  0  0  0
 18  2  1  1  0  0  0
 18 19  1  0  0  0  0
 19 20  1  6  0  0  0
 19 21  1  0  0  0  0
 21 22  1  6  0  0  0
 23 20  1  1  0  0  0
 23 24  1  0  0  0  0
 23 28  1  0  0  0  0
 24 25  1  1  0  0  0
 24 26  1  0  0  0  0
 26 27  1  0  0  0  0
 26 32  1  1  0  0  0
 27 28  1  0  0  0  0
 27 29  1  1  0  0  0
 29 30  1  0  0  0  0
 31 32  1  6  0  0  0
 31 33  1  0  0  0  0
 31 39  1  0  0  0  0
 33 36  1  0  0  0  0
 33 41  1  6  0  0  0
 34 40  1  0  0  0  0
 35 48  1  0  0  0  0
 36 37  1  0  0  0  0
 36 45  1  1  0  0  0
 37 38  1  0  0  0  0
 37 44  1  6  0  0  0
 38 39  1  0  0  0  0
 38 40  1  6  0  0  0
 43 47  1  0  0  0  0
 46 48  1  0  0  0  0
 48 43  1  1  0  0  0
M  END
>  <CHROM.1>
-3.20070235,-110.77428817,-153.20469866,-88.44799283,179.31206313,105.71927838
-67.60841806,-68.06566113,-130.40549109,59.71296192,60.90342567,-85.10584931
7.85533244,25.41146177,13.75718187,10.84527562,-2.05043663,-0.82484489,0.22899901

>  <Name>
ligand

>  <RI>
0

>  <Rbt.Current_Directory>
/home/itssahil/PROJECTS/Mol_Feturizer/New_Systems/rnas/4PDQ

>  <Rbt.Executable>
rbdock ($Id: //depot/dev/client3/rdock/2013.1/src/exe/rbdock.cxx#4 $)

>  <Rbt.Library>
libRbt.so (2013.1, Build901 2013/11/27)

>  <Rbt.Parameter_File>
/export/apps/rDock/src/rDock_2013.1_src/data/scripts/dock_solv.prm

>  <Rbt.Receptor>
prm/blind_docking_60.prm

>  <SCORE>
9.24991

>  <SCORE.INTER>
-2.93739

>  <SCORE.INTER.CONST>
1

>  <SCORE.INTER.POLAR>
0

>  <SCORE.INTER.ROT>
13

>  <SCORE.INTER.SOLV>
35.7443

>  <SCORE.INTER.VDW>
-26.1397

>  <SCORE.INTER.norm>
-0.0599468

>  <SCORE.INTRA>
5.77853

>  <SCORE.INTRA.DIHEDRAL>
-1.57741

>  <SCORE.INTRA.DIHEDRAL.0>
34.5115

>  <SCORE.INTRA.POLAR>
0

>  <SCORE.INTRA.POLAR.0>
0

>  <SCORE.INTRA.REPUL>
0

>  <SCORE.INTRA.REPUL.0>
0

>  <SCORE.INTRA.SOLV>
6.32902

>  <SCORE.INTRA.SOLV.lig_0>
-122.812

>  <SCORE.INTRA.VDW>
3.40272

>  <SCORE.INTRA.VDW.0>
-7.46208

>  <SCORE.INTRA.norm>
0.117929

>  <SCORE.RESTR>
6.40878

>  <SCORE.RESTR.CAVITY>
6.40878

>  <SCORE.RESTR.norm>
0.130791

>  <SCORE.SYSTEM>
0

>  <SCORE.SYSTEM.CONST>
0

>  <SCORE.SYSTEM.DIHEDRAL>
0

>  <SCORE.SYSTEM.SOLV>
0

>  <SCORE.SYSTEM.norm>
0

>  <SCORE.heavy>
49

>  <SCORE.norm>
0.188774

>  <RMSD>
11.655

$$$$
ligand
 OpenBabel11021811513D
libRbt.so/2013.1/901 2013/11/27
 49 52  0  0  0  0  0  0  0  0999 V2000
   27.3207   15.0445   13.8458 C   0  0  2  0  0  0  0  0  0  0  0  0
   26.1482   14.2965   13.9788 O   0  0  0  0  0  0  0  0  0  0  0  0
   27.0070   16.5692   14.0784 C   0  0  2  0  0  0  0  0  0  0  0  0
   26.4176   16.7504   15.4684 N   0  0  0  0  0  0  0  0  0  0  0  0
   28.3913    8.3035   13.8236 O   0  0  0  0  0  0  0  0  0  0  0  0
   26.0470   17.0945   12.9855 C   0  0  2  0  0  0  0  0  0  0  0  0
   29.1019    3.9364   12.2879 N   0  0  0  0  0  0  0  0  0  0  0  0
   26.6551   16.8825   11.5902 C   0  0  2  0  0  0  0  0  0  0  0  0
   26.9873   15.3541   11.3194 C   0  0  2  0  0  0  0  0  0  0  0  0
   27.8931   14.8653   12.4512 O   0  0  0  0  0  0  0  0  0  0  0  0
   27.6536   15.1545    9.9274 C   0  0  0  0  0  0  0  0  0  0  0  0
   28.1557   13.8443    9.7146 N   0  0  0  0  0  0  0  0  0  0  0  0
   26.8922   10.3365   12.3765 C   0  0  2  0  0  0  0  0  0  0  0  0
   26.7285    8.8728   12.1357 N   0  0  0  0  0  0  0  0  0  0  0  0
   26.7831   10.5666   13.9612 C   0  0  0  0  0  0  0  0  0  0  0  0
   26.9702   12.0907   14.3086 C   0  0  2  0  0  0  0  0  0  0  0  0
   26.8521   12.3175   15.7565 N   0  0  0  0  0  0  0  0  0  0  0  0
   25.8944   12.9362   13.5981 C   0  0  2  0  0  0  0  0  0  0  0  0
   25.9719   12.7287   12.0316 C   0  0  2  0  0  0  0  0  0  0  0  0
   24.9156   13.5794   11.4486 O   0  0  0  0  0  0  0  0  0  0  0  0
   25.7122   11.1721   11.6985 C   0  0  1  0  0  0  0  0  0  0  0  0
   25.7765   11.0118   10.3165 O   0  0  0  0  0  0  0  0  0  0  0  0
   24.6607   13.7519   10.1964 C   0  0  1  0  0  0  0  0  0  0  0  0
   23.3574   13.0791    9.6736 C   0  0  2  0  0  0  0  0  0  0  0  0
   23.6820   11.8044    9.2156 O   0  0  0  0  0  0  0  0  0  0  0  0
   23.0673   13.9988    8.5609 C   0  0  1  0  0  0  0  0  0  0  0  0
   23.4088   15.4479    9.0264 C   0  0  2  0  0  0  0  0  0  0  0  0
   24.5622   15.1513    9.7749 O   0  0  0  0  0  0  0  0  0  0  0  0
   22.3106   16.2663    9.7070 C   0  0  0  0  0  0  0  0  0  0  0  0
   22.1319   15.6991   10.9911 O   0  0  0  0  0  0  0  0  0  0  0  0
   25.0941   14.1900    7.1901 C   0  0  2  0  0  0  0  0  0  0  0  0
   23.9097   13.5467    7.4067 O   0  0  0  0  0  0  0  0  0  0  0  0
   25.0937   14.9530    5.8983 C   0  0  1  0  0  0  0  0  0  0  0  0
   30.2419   13.4206    7.2264 N   0  0  0  0  0  0  0  0  0  0  0  0
   25.8910    6.2352   12.3028 O   0  0  0  0  0  0  0  0  0  0  0  0
   26.5050   15.6270    5.6883 C   0  0  2  0  0  0  0  0  0  0  0  0
   27.6974   14.6088    5.7045 C   0  0  1  0  0  0  0  0  0  0  0  0
   27.6826   13.8946    6.9596 C   0  0  1  0  0  0  0  0  0  0  0  0
   26.3346   13.2369    7.1859 O   0  0  0  0  0  0  0  0  0  0  0  0
   28.8527   12.8165    7.0025 C   0  0  0  0  0  0  0  0  0  0  0  0
   24.8635   14.0757    4.8195 N   0  0  0  0  0  0  0  0  0  0  0  0
   25.8674   18.2108   13.1523 O   0  0  0  0  0  0  0  0  0  0  0  0
   28.0230    6.1196   11.5275 C   0  0  0  0  0  0  0  0  0  0  0  0
   27.5445   13.8594    4.8486 O   0  0  0  0  0  0  0  0  0  0  0  0
   26.6843   16.3605    6.5560 O   0  0  0  0  0  0  0  0  0  0  0  0
   27.5765    7.9501   12.9594 C   0  0  0  0  0  0  0  0  0  0  0  0
   29.0593    5.3102   11.9362 C   0  0  0  0  0  0  0  0  0  0  0  0
   27.2766    6.4049   12.5937 C   0  0  1  0  0  0  0  0  0  0  0  0
   27.8478   17.6177   11.4708 F   0  0  0  0  0  0  0  0  0  0  0  0
  1  2  1  6  0  0  0
  1 10  1  0  0  0  0
  1  3  1  0  0  0  0
  3  4  1  1  0  0  0
  3  6  1  0  0  0  0
  5 46  2  0  0  0  0
  6 42  1  1  0  0  0
  6  8  1  0  0  0  0
  7 47  1  0  0  0  0
  8  9  1  0  0  0  0
  8 49  1  1  0  0  0
  9 10  1  0  0  0  0
  9 11  1  6  0  0  0
 11 12  1  0  0  0  0
 13 14  1  1  0  0  0
 13 15  1  0  0  0  0
 13 21  1  0  0  0  0
 14 46  1  0  0  0  0
 15 16  1  0  0  0  0
 16 17  1  1  0  0  0
 16 18  1  0  0  0  0
 18  2  1  6  0  0  0
 18 19  1  0  0  0  0
 19 20  1  6  0  0  0
 19 21  1  0  0  0  0
 21 22  1  6  0  0  0
 23 20  1  1  0  0  0
 23 24  1  0  0  0  0
 23 28  1  0  0  0  0
 24 25  1  6  0  0  0
 24 26  1  0  0  0  0
 26 27  1  0  0  0  0
 26 32  1  6  0  0  0
 27 28  1  0  0  0  0
 27 29  1  1  0  0  0
 29 30  1  0  0  0  0
 31 32  1  6  0  0  0
 31 33  1  0  0  0  0
 31 39  1  0  0  0  0
 33 36  1  0  0  0  0
 33 41  1  6  0  0  0
 34 40  1  0  0  0  0
 35 48  1  0  0  0  0
 36 37  1  0  0  0  0
 36 45  1  1  0  0  0
 37 38  1  0  0  0  0
 37 44  1  6  0  0  0
 38 39  1  0  0  0  0
 38 40  1  6  0  0  0
 43 47  1  0  0  0  0
 46 48  1  0  0  0  0
 48 43  1  6  0  0  0
M  END
>  <CHROM.1>
166.16690407,55.66253086,170.95426998,-50.00093248,177.15130894,107.92639359
-97.52421015,71.98690674,-114.04322309,75.19578025,75.27510414,-133.50240315
143.14573310,26.30896038,13.04307559,10.57464749,2.89184979,1.35485948,-1.78352734

>  <Name>
ligand

>  <RI>
0

>  <Rbt.Current_Directory>
/home/itssahil/PROJECTS/Mol_Feturizer/New_Systems/rnas/4PDQ

>  <Rbt.Executable>
rbdock ($Id: //depot/dev/client3/rdock/2013.1/src/exe/rbdock.cxx#4 $)

>  <Rbt.Library>
libRbt.so (2013.1, Build901 2013/11/27)

>  <Rbt.Parameter_File>
/export/apps/rDock/src/rDock_2013.1_src/data/scripts/dock_solv.prm

>  <Rbt.Receptor>
prm/blind_docking_60.prm

>  <SCORE>
18.6101

>  <SCORE.INTER>
13.3902

>  <SCORE.INTER.CONST>
1

>  <SCORE.INTER.POLAR>
0

>  <SCORE.INTER.ROT>
13

>  <SCORE.INTER.SOLV>
32.7788

>  <SCORE.INTER.VDW>
-14.2662

>  <SCORE.INTER.norm>
0.273269

>  <SCORE.INTRA>
3.598

>  <SCORE.INTRA.DIHEDRAL>
-6.63471

>  <SCORE.INTRA.DIHEDRAL.0>
34.5115

>  <SCORE.INTRA.POLAR>
0

>  <SCORE.INTRA.POLAR.0>
0

>  <SCORE.INTRA.REPUL>
0.161018

>  <SCORE.INTRA.REPUL.0>
0

>  <SCORE.INTRA.SOLV>
6.2185

>  <SCORE.INTRA.SOLV.lig_0>
-122.812

>  <SCORE.INTRA.VDW>
3.00102

>  <SCORE.INTRA.VDW.0>
-7.46208

>  <SCORE.INTRA.norm>
0.0734286

>  <SCORE.RESTR>
1.62192

>  <SCORE.RESTR.CAVITY>
1.62192

>  <SCORE.RESTR.norm>
0.0331004

>  <SCORE.SYSTEM>
0

>  <SCORE.SYSTEM.CONST>
0

>  <SCORE.SYSTEM.DIHEDRAL>
0

>  <SCORE.SYSTEM.SOLV>
0

>  <SCORE.SYSTEM.norm>
0

>  <SCORE.heavy>
49

>  <SCORE.norm>
0.379798

>  <RMSD>
11.676

$$$$
ligand
 OpenBabel11021811513D
libRbt.so/2013.1/901 2013/11/27
 49 52  0  0  0  0  0  0  0  0999 V2000
   25.8039   12.3859   12.6165 C   0  0  2  0  0  0  0  0  0  0  0  0
   26.4597   13.6192   12.5856 O   0  0  0  0  0  0  0  0  0  0  0  0
   26.6206   11.3724   13.5013 C   0  0  2  0  0  0  0  0  0  0  0  0
   26.7568   11.9355   14.9073 N   0  0  0  0  0  0  0  0  0  0  0  0
   25.6789   18.0010    8.9238 O   0  0  0  0  0  0  0  0  0  0  0  0
   28.0041   11.0971   12.8672 C   0  0  2  0  0  0  0  0  0  0  0  0
   25.0390   23.3908    8.4097 N   0  0  0  0  0  0  0  0  0  0  0  0
   27.8410   10.5480   11.4412 C   0  0  2  0  0  0  0  0  0  0  0  0
   27.0192   11.5439   10.5180 C   0  0  2  0  0  0  0  0  0  0  0  0
   25.6845   11.8282   11.2096 O   0  0  0  0  0  0  0  0  0  0  0  0
   26.8102   10.9567    9.0921 C   0  0  0  0  0  0  0  0  0  0  0  0
   28.0099   10.5269    8.4675 N   0  0  0  0  0  0  0  0  0  0  0  0
   25.0615   17.6369   11.7453 C   0  0  2  0  0  0  0  0  0  0  0  0
   24.8886   18.9356   11.0309 N   0  0  0  0  0  0  0  0  0  0  0  0
   26.6314   17.3026   11.7383 C   0  0  0  0  0  0  0  0  0  0  0  0
   26.9082   15.9518   12.4979 C   0  0  2  0  0  0  0  0  0  0  0  0
   28.3415   15.6242   12.4810 N   0  0  0  0  0  0  0  0  0  0  0  0
   26.1406   14.7951   11.8273 C   0  0  2  0  0  0  0  0  0  0  0  0
   24.5874   15.0953   11.8138 C   0  0  2  0  0  0  0  0  0  0  0  0
   23.9471   13.9349   11.1634 O   0  0  0  0  0  0  0  0  0  0  0  0
   24.3251   16.4476   10.9746 C   0  0  1  0  0  0  0  0  0  0  0  0
   22.9536   16.6899   10.9678 O   0  0  0  0  0  0  0  0  0  0  0  0
   24.0485   13.5845    9.9266 C   0  0  1  0  0  0  0  0  0  0  0  0
   23.1779   12.3675    9.4960 C   0  0  2  0  0  0  0  0  0  0  0  0
   23.9355   11.2113    9.6666 O   0  0  0  0  0  0  0  0  0  0  0  0
   23.0167   12.7063    8.0722 C   0  0  1  0  0  0  0  0  0  0  0  0
   22.8253   14.2503    7.9586 C   0  0  2  0  0  0  0  0  0  0  0  0
   23.7336   14.6390    8.9599 O   0  0  0  0  0  0  0  0  0  0  0  0
   21.4039   14.8100    8.0322 C   0  0  0  0  0  0  0  0  0  0  0  0
   20.9571   14.5841    9.3558 O   0  0  0  0  0  0  0  0  0  0  0  0
   24.7435   12.9733    6.3487 C   0  0  2  0  0  0  0  0  0  0  0  0
   24.2543   12.2228    7.3787 O   0  0  0  0  0  0  0  0  0  0  0  0
   25.9965   12.3863    5.7684 C   0  0  1  0  0  0  0  0  0  0  0  0
   25.8599   17.8820    5.0549 N   0  0  0  0  0  0  0  0  0  0  0  0
   23.6273   20.7868    9.0813 O   0  0  0  0  0  0  0  0  0  0  0  0
   26.5330   13.3281    4.6215 C   0  0  2  0  0  0  0  0  0  0  0  0
   26.8023   14.8001    5.0902 C   0  0  1  0  0  0  0  0  0  0  0  0
   25.5813   15.3459    5.6349 C   0  0  1  0  0  0  0  0  0  0  0  0
   25.0440   14.4575    6.7409 O   0  0  0  0  0  0  0  0  0  0  0  0
   25.8198   16.8276    6.1648 C   0  0  0  0  0  0  0  0  0  0  0  0
   26.9923   12.2963    6.7617 N   0  0  0  0  0  0  0  0  0  0  0  0
   28.5604   10.3289   13.5050 O   0  0  0  0  0  0  0  0  0  0  0  0
   25.7793   21.2720    9.6226 C   0  0  0  0  0  0  0  0  0  0  0  0
   27.5996   14.7764    5.9156 O   0  0  0  0  0  0  0  0  0  0  0  0
   25.7304   13.3841    3.7994 O   0  0  0  0  0  0  0  0  0  0  0  0
   25.2545   18.9648    9.5769 C   0  0  0  0  0  0  0  0  0  0  0  0
   25.9539   22.4030    8.8568 C   0  0  0  0  0  0  0  0  0  0  0  0
   25.0010   20.4300    8.9440 C   0  0  1  0  0  0  0  0  0  0  0  0
   27.1584    9.3191   11.4763 F   0  0  0  0  0  0  0  0  0  0  0  0
  1  2  1  6  0  0  0
  1 10  1  0  0  0  0
  1  3  1  0  0  0  0
  3  4  1  1  0  0  0
  3  6  1  0  0  0  0
  5 46  2  0  0  0  0
  6 42  1  1  0  0  0
  6  8  1  0  0  0  0
  7 47  1  0  0  0  0
  8  9  1  0  0  0  0
  8 49  1  1  0  0  0
  9 10  1  0  0  0  0
  9 11  1  6  0  0  0
 11 12  1  0  0  0  0
 13 14  1  6  0  0  0
 13 15  1  0  0  0  0
 13 21  1  0  0  0  0
 14 46  1  0  0  0  0
 15 16  1  0  0  0  0
 16 17  1  6  0  0  0
 16 18  1  0  0  0  0
 18  2  1  1  0  0  0
 18 19  1  0  0  0  0
 19 20  1  6  0  0  0
 19 21  1  0  0  0  0
 21 22  1  1  0  0  0
 23 20  1  1  0  0  0
 23 24  1  0  0  0  0
 23 28  1  0  0  0  0
 24 25  1  6  0  0  0
 24 26  1  0  0  0  0
 26 27  1  0  0  0  0
 26 32  1  6  0  0  0
 27 28  1  0  0  0  0
 27 29  1  1  0  0  0
 29 30  1  0  0  0  0
 31 32  1  1  0  0  0
 31 33  1  0  0  0  0
 31 39  1  0  0  0  0
 33 36  1  0  0  0  0
 33 41  1  1  0  0  0
 34 40  1  0  0  0  0
 35 48  1  0  0  0  0
 36 37  1  0  0  0  0
 36 45  1  6  0  0  0
 37 38  1  0  0  0  0
 37 44  1  1  0  0  0
 38 39  1  0  0  0  0
 38 40  1  1  0  0  0
 43 47  1  0  0  0  0
 46 48  1  0  0  0  0
 48 43  1  1  0  0  0
M  END
>  <CHROM.1>
174.58451166,162.91836570,-52.39824594,64.18951234,-67.81645477,-175.84596097
-143.85773658,67.79701516,178.83863375,78.08425123,64.69975056,-80.93671885
119.61407783,25.47527075,14.68895487,9.44233756,-0.46850051,-1.36414328,0.79403109

>  <Name>
ligand

>  <RI>
0

>  <Rbt.Current_Directory>
/home/itssahil/PROJECTS/Mol_Feturizer/New_Systems/rnas/4PDQ

>  <Rbt.Executable>
rbdock ($Id: //depot/dev/client3/rdock/2013.1/src/exe/rbdock.cxx#4 $)

>  <Rbt.Library>
libRbt.so (2013.1, Build901 2013/11/27)

>  <Rbt.Parameter_File>
/export/apps/rDock/src/rDock_2013.1_src/data/scripts/dock_solv.prm

>  <Rbt.Receptor>
prm/blind_docking_100.prm

>  <SCORE>
9.48197

>  <SCORE.INTER>
3.37343

>  <SCORE.INTER.CONST>
1

>  <SCORE.INTER.POLAR>
0

>  <SCORE.INTER.ROT>
13

>  <SCORE.INTER.SOLV>
30.8437

>  <SCORE.INTER.VDW>
-20.2989

>  <SCORE.INTER.norm>
0.0688454

>  <SCORE.INTRA>
-3.69712

>  <SCORE.INTRA.DIHEDRAL>
-24.0205

>  <SCORE.INTRA.DIHEDRAL.0>
34.5115

>  <SCORE.INTRA.POLAR>
0

>  <SCORE.INTRA.POLAR.0>
0

>  <SCORE.INTRA.REPUL>
0.146685

>  <SCORE.INTRA.REPUL.0>
0

>  <SCORE.INTRA.SOLV>
4.29111

>  <SCORE.INTRA.SOLV.lig_0>
-122.812

>  <SCORE.INTRA.VDW>
5.43416

>  <SCORE.INTRA.VDW.0>
-7.46208

>  <SCORE.INTRA.norm>
-0.0754514

>  <SCORE.RESTR>
9.80567

>  <SCORE.RESTR.CAVITY>
9.80567

>  <SCORE.RESTR.norm>
0.200116

>  <SCORE.SYSTEM>
0

>  <SCORE.SYSTEM.CONST>
0

>  <SCORE.SYSTEM.DIHEDRAL>
0

>  <SCORE.SYSTEM.SOLV>
0

>  <SCORE.SYSTEM.norm>
0

>  <SCORE.heavy>
49

>  <SCORE.norm>
0.19351

>  <RMSD>
11.691

$$$$
ligand
 OpenBabel11021811513D
libRbt.so/2013.1/901 2013/11/27
 49 52  0  0  0  0  0  0  0  0999 V2000
   26.8238   12.1931   14.0921 C   0  0  2  0  0  0  0  0  0  0  0  0
   27.4477   12.9391   13.0890 O   0  0  0  0  0  0  0  0  0  0  0  0
   27.9112   11.4638   14.9655 C   0  0  2  0  0  0  0  0  0  0  0  0
   28.8384   12.5027   15.5767 N   0  0  0  0  0  0  0  0  0  0  0  0
   25.8457   16.5248    8.8623 O   0  0  0  0  0  0  0  0  0  0  0  0
   28.6948   10.4428   14.1081 C   0  0  2  0  0  0  0  0  0  0  0  0
   25.8998   21.1108    9.7843 N   0  0  0  0  0  0  0  0  0  0  0  0
   27.7353    9.4164   13.4857 C   0  0  2  0  0  0  0  0  0  0  0  0
   26.6212   10.1160   12.5974 C   0  0  2  0  0  0  0  0  0  0  0  0
   25.9105   11.1520   13.4702 O   0  0  0  0  0  0  0  0  0  0  0  0
   25.6207    9.0756   12.0160 C   0  0  0  0  0  0  0  0  0  0  0  0
   26.2459    7.9483   11.4224 N   0  0  0  0  0  0  0  0  0  0  0  0
   24.6322   15.7710   11.3988 C   0  0  2  0  0  0  0  0  0  0  0  0
   24.0937   16.8533   10.5238 N   0  0  0  0  0  0  0  0  0  0  0  0
   26.0655   16.2640   11.9272 C   0  0  0  0  0  0  0  0  0  0  0  0
   26.6984   15.1856   12.8835 C   0  0  2  0  0  0  0  0  0  0  0  0
   28.0214   15.6169   13.3585 N   0  0  0  0  0  0  0  0  0  0  0  0
   26.8657   13.8452   12.1403 C   0  0  2  0  0  0  0  0  0  0  0  0
   25.4693   13.3323   11.6018 C   0  0  2  0  0  0  0  0  0  0  0  0
   25.7345   12.0509   10.9184 O   0  0  0  0  0  0  0  0  0  0  0  0
   24.8737   14.4243   10.5750 C   0  0  1  0  0  0  0  0  0  0  0  0
   23.6502   13.9515   10.1068 O   0  0  0  0  0  0  0  0  0  0  0  0
   25.5334   11.7785    9.6742 C   0  0  1  0  0  0  0  0  0  0  0  0
   26.2113   10.4786    9.1494 C   0  0  2  0  0  0  0  0  0  0  0  0
   27.4688   10.8157    8.6545 O   0  0  0  0  0  0  0  0  0  0  0  0
   25.2674   10.1620    8.0645 C   0  0  1  0  0  0  0  0  0  0  0  0
   23.8260   10.4885    8.5636 C   0  0  2  0  0  0  0  0  0  0  0  0
   24.1251   11.6549    9.2905 O   0  0  0  0  0  0  0  0  0  0  0  0
   23.0415    9.3872    9.2781 C   0  0  0  0  0  0  0  0  0  0  0  0
   21.8756   10.0018    9.7934 O   0  0  0  0  0  0  0  0  0  0  0  0
   25.7254   12.3510    7.0536 C   0  0  2  0  0  0  0  0  0  0  0  0
   25.6772   10.9967    6.8891 O   0  0  0  0  0  0  0  0  0  0  0  0
   25.3346   13.0853    5.8049 C   0  0  1  0  0  0  0  0  0  0  0  0
   29.8219   14.1552    7.3373 N   0  0  0  0  0  0  0  0  0  0  0  0
   22.7955   17.9293    8.0592 O   0  0  0  0  0  0  0  0  0  0  0  0
   25.4618   14.6389    6.0501 C   0  0  2  0  0  0  0  0  0  0  0  0
   26.8929   15.0891    6.5063 C   0  0  1  0  0  0  0  0  0  0  0  0
   27.2421   14.3772    7.7132 C   0  0  1  0  0  0  0  0  0  0  0  0
   27.1274   12.8792    7.5038 O   0  0  0  0  0  0  0  0  0  0  0  0
   28.7087   14.7714    8.1895 C   0  0  0  0  0  0  0  0  0  0  0  0
   26.2008   12.7371    4.7491 N   0  0  0  0  0  0  0  0  0  0  0  0
   29.4488    9.8986   14.7727 O   0  0  0  0  0  0  0  0  0  0  0  0
   24.1168   19.3817    9.2015 C   0  0  0  0  0  0  0  0  0  0  0  0
   27.6399   14.8099    5.6807 O   0  0  0  0  0  0  0  0  0  0  0  0
   24.7383   14.9283    6.8963 O   0  0  0  0  0  0  0  0  0  0  0  0
   24.8338   17.1269    9.2486 C   0  0  0  0  0  0  0  0  0  0  0  0
   25.3624   19.9656    9.1420 C   0  0  0  0  0  0  0  0  0  0  0  0
   24.1243   18.3111    8.4084 C   0  0  1  0  0  0  0  0  0  0  0  0
   27.0917    8.6858   14.5002 F   0  0  0  0  0  0  0  0  0  0  0  0
  1  2  1  6  0  0  0
  1 10  1  0  0  0  0
  1  3  1  0  0  0  0
  3  4  1  6  0  0  0
  3  6  1  0  0  0  0
  5 46  2  0  0  0  0
  6 42  1  1  0  0  0
  6  8  1  0  0  0  0
  7 47  1  0  0  0  0
  8  9  1  0  0  0  0
  8 49  1  1  0  0  0
  9 10  1  0  0  0  0
  9 11  1  1  0  0  0
 11 12  1  0  0  0  0
 13 14  1  6  0  0  0
 13 15  1  0  0  0  0
 13 21  1  0  0  0  0
 14 46  1  0  0  0  0
 15 16  1  0  0  0  0
 16 17  1  6  0  0  0
 16 18  1  0  0  0  0
 18  2  1  1  0  0  0
 18 19  1  0  0  0  0
 19 20  1  6  0  0  0
 19 21  1  0  0  0  0
 21 22  1  1  0  0  0
 23 20  1  1  0  0  0
 23 24  1  0  0  0  0
 23 28  1  0  0  0  0
 24 25  1  6  0  0  0
 24 26  1  0  0  0  0
 26 27  1  0  0  0  0
 26 32  1  6  0  0  0
 27 28  1  0  0  0  0
 27 29  1  1  0  0  0
 29 30  1  0  0  0  0
 31 32  1  6  0  0  0
 31 33  1  0  0  0  0
 31 39  1  0  0  0  0
 33 36  1  0  0  0  0
 33 41  1  6  0  0  0
 34 40  1  0  0  0  0
 35 48  1  0  0  0  0
 36 37  1  0  0  0  0
 36 45  1  1  0  0  0
 37 38  1  0  0  0  0
 37 44  1  6  0  0  0
 38 39  1  0  0  0  0
 38 40  1  6  0  0  0
 43 47  1  0  0  0  0
 46 48  1  0  0  0  0
 48 43  1  1  0  0  0
M  END
>  <CHROM.1>
-174.16869846,82.04718458,-47.69581272,65.82096709,-118.50618173,165.88096169
-57.38140568,171.35034444,-145.89771922,-74.25048265,-179.63554630,-160.12722063
117.88426994,26.02338438,13.28034857,10.11227509,-0.77234963,-1.29084097
0.13407773

>  <Name>
ligand

>  <RI>
0

>  <Rbt.Current_Directory>
/home/itssahil/PROJECTS/Mol_Feturizer/New_Systems/rnas/4PDQ

>  <Rbt.Executable>
rbdock ($Id: //depot/dev/client3/rdock/2013.1/src/exe/rbdock.cxx#4 $)

>  <Rbt.Library>
libRbt.so (2013.1, Build901 2013/11/27)

>  <Rbt.Parameter_File>
/export/apps/rDock/src/rDock_2013.1_src/data/scripts/dock_solv.prm

>  <Rbt.Receptor>
prm/blind_docking_80.prm

>  <SCORE>
4.65747

>  <SCORE.INTER>
-1.25557

>  <SCORE.INTER.CONST>
1

>  <SCORE.INTER.POLAR>
0

>  <SCORE.INTER.ROT>
13

>  <SCORE.INTER.SOLV>
26.0977

>  <SCORE.INTER.VDW>
-21.803

>  <SCORE.INTER.norm>
-0.025624

>  <SCORE.INTRA>
-0.743893

>  <SCORE.INTRA.DIHEDRAL>
-16.022

>  <SCORE.INTRA.DIHEDRAL.0>
34.5115

>  <SCORE.INTRA.POLAR>
0

>  <SCORE.INTRA.POLAR.0>
0

>  <SCORE.INTRA.REPUL>
0

>  <SCORE.INTRA.REPUL.0>
0

>  <SCORE.INTRA.SOLV>
4.1776

>  <SCORE.INTRA.SOLV.lig_0>
-122.812

>  <SCORE.INTRA.VDW>
5.17829

>  <SCORE.INTRA.VDW.0>
-7.46208

>  <SCORE.INTRA.norm>
-0.0151815

>  <SCORE.RESTR>
6.65694

>  <SCORE.RESTR.CAVITY>
6.65694

>  <SCORE.RESTR.norm>
0.135856

>  <SCORE.SYSTEM>
0

>  <SCORE.SYSTEM.CONST>
0

>  <SCORE.SYSTEM.DIHEDRAL>
0

>  <SCORE.SYSTEM.SOLV>
0

>  <SCORE.SYSTEM.norm>
0

>  <SCORE.heavy>
49

>  <SCORE.norm>
0.0950504

>  <RMSD>
11.692

$$$$
ligand
 OpenBabel11021811513D
libRbt.so/2013.1/901 2013/11/27
 49 52  0  0  0  0  0  0  0  0999 V2000
   25.2109   16.3091    8.0939 C   0  0  2  0  0  0  0  0  0  0  0  0
   25.7736   17.0081    9.1648 O   0  0  0  0  0  0  0  0  0  0  0  0
   25.7330   16.9087    6.7356 C   0  0  2  0  0  0  0  0  0  0  0  0
   27.2497   16.8073    6.6962 N   0  0  0  0  0  0  0  0  0  0  0  0
   27.9108   18.8932   15.2442 O   0  0  0  0  0  0  0  0  0  0  0  0
   25.2610   18.3728    6.5763 C   0  0  2  0  0  0  0  0  0  0  0  0
   26.8897   17.0893   20.0532 N   0  0  0  0  0  0  0  0  0  0  0  0
   23.7276   18.4521    6.6392 C   0  0  2  0  0  0  0  0  0  0  0  0
   23.1630   17.8537    7.9967 C   0  0  2  0  0  0  0  0  0  0  0  0
   23.6980   16.4274    8.1368 O   0  0  0  0  0  0  0  0  0  0  0  0
   21.6075   17.8864    8.0297 C   0  0  0  0  0  0  0  0  0  0  0  0
   20.9960   16.8694    7.2514 N   0  0  0  0  0  0  0  0  0  0  0  0
   26.6128   17.0335   13.4189 C   0  0  2  0  0  0  0  0  0  0  0  0
   26.3699   17.0387   14.8914 N   0  0  0  0  0  0  0  0  0  0  0  0
   25.6271   18.1254   12.7766 C   0  0  0  0  0  0  0  0  0  0  0  0
   25.8359   18.2037   11.2183 C   0  0  2  0  0  0  0  0  0  0  0  0
   24.9238   19.1867   10.6152 N   0  0  0  0  0  0  0  0  0  0  0  0
   25.5611   16.8307   10.5730 C   0  0  2  0  0  0  0  0  0  0  0  0
   26.5150   15.7287   11.1881 C   0  0  2  0  0  0  0  0  0  0  0  0
   26.1807   14.4636   10.5046 O   0  0  0  0  0  0  0  0  0  0  0  0
   26.2351   15.6226   12.7730 C   0  0  1  0  0  0  0  0  0  0  0  0
   27.0775   14.6434   13.2936 O   0  0  0  0  0  0  0  0  0  0  0  0
   26.8018   13.9326    9.5070 C   0  0  1  0  0  0  0  0  0  0  0  0
   28.3566   13.9713    9.5814 C   0  0  2  0  0  0  0  0  0  0  0  0
   28.7909   15.1390    8.9587 O   0  0  0  0  0  0  0  0  0  0  0  0
   28.6447   12.7805    8.7647 C   0  0  1  0  0  0  0  0  0  0  0  0
   27.5856   11.6879    9.1080 C   0  0  2  0  0  0  0  0  0  0  0  0
   26.4678   12.5298    9.2495 O   0  0  0  0  0  0  0  0  0  0  0  0
   27.8927   10.7163   10.2485 C   0  0  0  0  0  0  0  0  0  0  0  0
   26.7632    9.8717   10.3644 O   0  0  0  0  0  0  0  0  0  0  0  0
   27.4639   12.9002    6.6165 C   0  0  2  0  0  0  0  0  0  0  0  0
   28.5798   13.2220    7.3339 O   0  0  0  0  0  0  0  0  0  0  0  0
   27.5833   13.3036    5.1763 C   0  0  1  0  0  0  0  0  0  0  0  0
   23.4233   13.4769    8.5971 N   0  0  0  0  0  0  0  0  0  0  0  0
   25.4788   18.5652   17.5071 O   0  0  0  0  0  0  0  0  0  0  0  0
   26.2437   12.9497    4.4211 C   0  0  2  0  0  0  0  0  0  0  0  0
   24.9705   13.6101    5.0549 C   0  0  1  0  0  0  0  0  0  0  0  0
   24.8719   13.1998    6.4360 C   0  0  1  0  0  0  0  0  0  0  0  0
   26.1492   13.5290    7.1852 O   0  0  0  0  0  0  0  0  0  0  0  0
   23.6148   13.8831    7.1331 C   0  0  0  0  0  0  0  0  0  0  0  0
   27.7848   14.6952    5.0799 N   0  0  0  0  0  0  0  0  0  0  0  0
   25.6174   18.7717    5.5663 O   0  0  0  0  0  0  0  0  0  0  0  0
   26.6899   16.6439   17.5492 C   0  0  0  0  0  0  0  0  0  0  0  0
   25.0963   14.7503    5.0139 O   0  0  0  0  0  0  0  0  0  0  0  0
   26.0899   11.8112    4.4793 O   0  0  0  0  0  0  0  0  0  0  0  0
   27.1180   18.0566   15.6995 C   0  0  0  0  0  0  0  0  0  0  0  0
   26.3502   16.5083   18.8767 C   0  0  0  0  0  0  0  0  0  0  0  0
   26.7402   17.9450   17.2667 C   0  0  1  0  0  0  0  0  0  0  0  0
   23.1663   17.7261    5.5737 F   0  0  0  0  0  0  0  0  0  0  0  0
  1  2  1  1  0  0  0
  1 10  1  0  0  0  0
  1  3  1  0  0  0  0
  3  4  1  1  0  0  0
  3  6  1  0  0  0  0
  5 46  2  0  0  0  0
  6 42  1  6  0  0  0
  6  8  1  0  0  0  0
  7 47  1  0  0  0  0
  8  9  1  0  0  0  0
  8 49  1  6  0  0  0
  9 10  1  0  0  0  0
  9 11  1  6  0  0  0
 11 12  1  0  0  0  0
 13 14  1  1  0  0  0
 13 15  1  0  0  0  0
 13 21  1  0  0  0  0
 14 46  1  0  0  0  0
 15 16  1  0  0  0  0
 16 17  1  6  0  0  0
 16 18  1  0  0  0  0
 18  2  1  6  0  0  0
 18 19  1  0  0  0  0
 19 20  1  6  0  0  0
 19 21  1  0  0  0  0
 21 22  1  1  0  0  0
 23 20  1  1  0  0  0
 23 24  1  0  0  0  0
 23 28  1  0  0  0  0
 24 25  1  6  0  0  0
 24 26  1  0  0  0  0
 26 27  1  0  0  0  0
 26 32  1  6  0  0  0
 27 28  1  0  0  0  0
 27 29  1  1  0  0  0
 29 30  1  0  0  0  0
 31 32  1  1  0  0  0
 31 33  1  0  0  0  0
 31 39  1  0  0  0  0
 33 36  1  0  0  0  0
 33 41  1  1  0  0  0
 34 40  1  0  0  0  0
 35 48  1  0  0  0  0
 36 37  1  0  0  0  0
 36 45  1  1  0  0  0
 37 38  1  0  0  0  0
 37 44  1  1  0  0  0
 38 39  1  0  0  0  0
 38 40  1  1  0  0  0
 43 47  1  0  0  0  0
 46 48  1  0  0  0  0
 48 43  1  6  0  0  0
M  END
>  <CHROM.1>
178.39059797,-153.03579140,76.87236913,-85.14467295,98.07287877,42.48260472
-102.94266126,178.39590192,-175.27628881,178.88048206,-51.21249473,-59.71995467
100.75578034,25.95798831,15.53979096,9.72542006,1.73903830,1.01548696,-1.98374884

>  <Name>
ligand

>  <RI>
0

>  <Rbt.Current_Directory>
/home/itssahil/PROJECTS/Mol_Feturizer/New_Systems/rnas/4PDQ

>  <Rbt.Executable>
rbdock ($Id: //depot/dev/client3/rdock/2013.1/src/exe/rbdock.cxx#4 $)

>  <Rbt.Library>
libRbt.so (2013.1, Build901 2013/11/27)

>  <Rbt.Parameter_File>
/export/apps/rDock/src/rDock_2013.1_src/data/scripts/dock_solv.prm

>  <Rbt.Receptor>
prm/blind_docking_40.prm

>  <SCORE>
13.7943

>  <SCORE.INTER>
6.27579

>  <SCORE.INTER.CONST>
1

>  <SCORE.INTER.POLAR>
0

>  <SCORE.INTER.ROT>
13

>  <SCORE.INTER.SOLV>
28.5475

>  <SCORE.INTER.VDW>
-17.5986

>  <SCORE.INTER.norm>
0.128077

>  <SCORE.INTRA>
4.24911

>  <SCORE.INTRA.DIHEDRAL>
-16.0639

>  <SCORE.INTRA.DIHEDRAL.0>
34.5115

>  <SCORE.INTRA.POLAR>
0

>  <SCORE.INTRA.POLAR.0>
0

>  <SCORE.INTRA.REPUL>
0

>  <SCORE.INTRA.REPUL.0>
0

>  <SCORE.INTRA.SOLV>
11.4581

>  <SCORE.INTRA.SOLV.lig_0>
-122.812

>  <SCORE.INTRA.VDW>
6.55204

>  <SCORE.INTRA.VDW.0>
-7.46208

>  <SCORE.INTRA.norm>
0.0867166

>  <SCORE.RESTR>
3.26936

>  <SCORE.RESTR.CAVITY>
3.26936

>  <SCORE.RESTR.norm>
0.0667217

>  <SCORE.SYSTEM>
0

>  <SCORE.SYSTEM.CONST>
0

>  <SCORE.SYSTEM.DIHEDRAL>
0

>  <SCORE.SYSTEM.SOLV>
0

>  <SCORE.SYSTEM.norm>
0

>  <SCORE.heavy>
49

>  <SCORE.norm>
0.281516

>  <RMSD>
11.704

$$$$
ligand
 OpenBabel11021811513D
libRbt.so/2013.1/901 2013/11/27
 49 52  0  0  0  0  0  0  0  0999 V2000
   26.5107   15.8442   11.3125 C   0  0  2  0  0  0  0  0  0  0  0  0
   25.7895   14.9862   12.1466 O   0  0  0  0  0  0  0  0  0  0  0  0
   27.3754   16.8290   12.1841 C   0  0  2  0  0  0  0  0  0  0  0  0
   28.3213   16.0212   13.0587 N   0  0  0  0  0  0  0  0  0  0  0  0
   27.3033    8.7432   11.4844 O   0  0  0  0  0  0  0  0  0  0  0  0
   26.4603   17.7406   13.0347 C   0  0  2  0  0  0  0  0  0  0  0  0
   23.2806    6.3659   12.2772 N   0  0  0  0  0  0  0  0  0  0  0  0
   25.5010   18.5311   12.1311 C   0  0  2  0  0  0  0  0  0  0  0  0
   24.6118   17.5698   11.2339 C   0  0  2  0  0  0  0  0  0  0  0  0
   25.5561   16.6536   10.4533 O   0  0  0  0  0  0  0  0  0  0  0  0
   23.6829   18.3776   10.2820 C   0  0  0  0  0  0  0  0  0  0  0  0
   24.3579   19.3774    9.5344 N   0  0  0  0  0  0  0  0  0  0  0  0
   25.6611   10.9572   10.5485 C   0  0  2  0  0  0  0  0  0  0  0  0
   25.2677    9.5257   10.3972 N   0  0  0  0  0  0  0  0  0  0  0  0
   25.9370   11.2057   12.1101 C   0  0  0  0  0  0  0  0  0  0  0  0
   26.3843   12.6945   12.3582 C   0  0  2  0  0  0  0  0  0  0  0  0
   26.6206   12.9402   13.7885 N   0  0  0  0  0  0  0  0  0  0  0  0
   25.2906   13.6681   11.8753 C   0  0  2  0  0  0  0  0  0  0  0  0
   24.9910   13.4463   10.3378 C   0  0  2  0  0  0  0  0  0  0  0  0
   23.9452   14.4229    9.9748 O   0  0  0  0  0  0  0  0  0  0  0  0
   24.4726   11.9345   10.1206 C   0  0  1  0  0  0  0  0  0  0  0  0
   24.2072   11.7618    8.7643 O   0  0  0  0  0  0  0  0  0  0  0  0
   23.7478   14.9544    8.8166 C   0  0  1  0  0  0  0  0  0  0  0  0
   23.1562   14.0075    7.7312 C   0  0  2  0  0  0  0  0  0  0  0  0
   24.2163   13.4185    7.0463 O   0  0  0  0  0  0  0  0  0  0  0  0
   22.4720   15.0185    6.9078 C   0  0  1  0  0  0  0  0  0  0  0  0
   21.8380   16.0758    7.8637 C   0  0  2  0  0  0  0  0  0  0  0  0
   22.8697   16.1268    8.8185 O   0  0  0  0  0  0  0  0  0  0  0  0
   20.4145   15.8334    8.3675 C   0  0  0  0  0  0  0  0  0  0  0  0
   20.1245   16.8925    9.2602 O   0  0  0  0  0  0  0  0  0  0  0  0
   24.5710   16.2477    6.5808 C   0  0  2  0  0  0  0  0  0  0  0  0
   23.5140   15.6047    6.0040 O   0  0  0  0  0  0  0  0  0  0  0  0
   24.8749   17.5523    5.9049 C   0  0  1  0  0  0  0  0  0  0  0  0
   28.0716   13.7011    7.8258 N   0  0  0  0  0  0  0  0  0  0  0  0
   26.3934    6.3527    9.6715 O   0  0  0  0  0  0  0  0  0  0  0  0
   26.1343   18.2142    6.5874 C   0  0  2  0  0  0  0  0  0  0  0  0
   27.4085   17.3004    6.5778 C   0  0  1  0  0  0  0  0  0  0  0  0
   27.0945   16.0568    7.2414 C   0  0  1  0  0  0  0  0  0  0  0  0
   25.8853   15.3996    6.6034 O   0  0  0  0  0  0  0  0  0  0  0  0
   28.3494   15.0782    7.2165 C   0  0  0  0  0  0  0  0  0  0  0  0
   25.1790   17.3327    4.5463 N   0  0  0  0  0  0  0  0  0  0  0  0
   27.1090   18.4723   13.6263 O   0  0  0  0  0  0  0  0  0  0  0  0
   25.7980    6.3675   11.8636 C   0  0  0  0  0  0  0  0  0  0  0  0
   27.6865   17.0794    5.4862 O   0  0  0  0  0  0  0  0  0  0  0  0
   25.8794   18.4151    7.6910 O   0  0  0  0  0  0  0  0  0  0  0  0
   26.2236    8.4990   10.9274 C   0  0  0  0  0  0  0  0  0  0  0  0
   24.6492    6.5557   12.5990 C   0  0  0  0  0  0  0  0  0  0  0  0
   25.6534    7.0039   10.7019 C   0  0  1  0  0  0  0  0  0  0  0  0
   26.2333   19.3743   11.2767 F   0  0  0  0  0  0  0  0  0  0  0  0
  1  2  1  1  0  0  0
  1 10  1  0  0  0  0
  1  3  1  0  0  0  0
  3  4  1  1  0  0  0
  3  6  1  0  0  0  0
  5 46  2  0  0  0  0
  6 42  1  6  0  0  0
  6  8  1  0  0  0  0
  7 47  1  0  0  0  0
  8  9  1  0  0  0  0
  8 49  1  6  0  0  0
  9 10  1  0  0  0  0
  9 11  1  6  0  0  0
 11 12  1  0  0  0  0
 13 14  1  1  0  0  0
 13 15  1  0  0  0  0
 13 21  1  0  0  0  0
 14 46  1  0  0  0  0
 15 16  1  0  0  0  0
 16 17  1  1  0  0  0
 16 18  1  0  0  0  0
 18  2  1  6  0  0  0
 18 19  1  0  0  0  0
 19 20  1  1  0  0  0
 19 21  1  0  0  0  0
 21 22  1  6  0  0  0
 23 20  1  1  0  0  0
 23 24  1  0  0  0  0
 23 28  1  0  0  0  0
 24 25  1  6  0  0  0
 24 26  1  0  0  0  0
 26 27  1  0  0  0  0
 26 32  1  6  0  0  0
 27 28  1  0  0  0  0
 27 29  1  1  0  0  0
 29 30  1  0  0  0  0
 31 32  1  6  0  0  0
 31 33  1  0  0  0  0
 31 39  1  0  0  0  0
 33 36  1  0  0  0  0
 33 41  1  6  0  0  0
 34 40  1  0  0  0  0
 35 48  1  0  0  0  0
 36 37  1  0  0  0  0
 36 45  1  1  0  0  0
 37 38  1  0  0  0  0
 37 44  1  6  0  0  0
 38 39  1  0  0  0  0
 38 40  1  6  0  0  0
 43 47  1  0  0  0  0
 46 48  1  0  0  0  0
 48 43  1  1  0  0  0
M  END
>  <CHROM.1>
-154.16578685,92.74162908,50.36820177,-55.73453899,151.77093283,71.96101706
-61.47330289,176.86143641,-134.76438075,-176.44626706,51.19861024,-150.20295562
-73.28620233,25.24315626,14.37896422,9.64529591,-1.68496327,1.18351341,2.95331735

>  <Name>
ligand

>  <RI>
0

>  <Rbt.Current_Directory>
/home/itssahil/PROJECTS/Mol_Feturizer/New_Systems/rnas/4PDQ

>  <Rbt.Executable>
rbdock ($Id: //depot/dev/client3/rdock/2013.1/src/exe/rbdock.cxx#4 $)

>  <Rbt.Library>
libRbt.so (2013.1, Build901 2013/11/27)

>  <Rbt.Parameter_File>
/export/apps/rDock/src/rDock_2013.1_src/data/scripts/dock_solv.prm

>  <Rbt.Receptor>
prm/blind_docking_100.prm

>  <SCORE>
10.4333

>  <SCORE.INTER>
1.65613

>  <SCORE.INTER.CONST>
1

>  <SCORE.INTER.POLAR>
0

>  <SCORE.INTER.ROT>
13

>  <SCORE.INTER.SOLV>
35.765

>  <SCORE.INTER.VDW>
-23.0843

>  <SCORE.INTER.norm>
0.0337986

>  <SCORE.INTRA>
4.07293

>  <SCORE.INTRA.DIHEDRAL>
-11.8836

>  <SCORE.INTRA.DIHEDRAL.0>
34.5115

>  <SCORE.INTRA.POLAR>
0

>  <SCORE.INTRA.POLAR.0>
0

>  <SCORE.INTRA.REPUL>
0.448317

>  <SCORE.INTRA.REPUL.0>
0

>  <SCORE.INTRA.SOLV>
5.3768

>  <SCORE.INTRA.SOLV.lig_0>
-122.812

>  <SCORE.INTRA.VDW>
5.08474

>  <SCORE.INTRA.VDW.0>
-7.46208

>  <SCORE.INTRA.norm>
0.0831211

>  <SCORE.RESTR>
4.70428

>  <SCORE.RESTR.CAVITY>
4.70428

>  <SCORE.RESTR.norm>
0.0960057

>  <SCORE.SYSTEM>
0

>  <SCORE.SYSTEM.CONST>
0

>  <SCORE.SYSTEM.DIHEDRAL>
0

>  <SCORE.SYSTEM.SOLV>
0

>  <SCORE.SYSTEM.norm>
0

>  <SCORE.heavy>
49

>  <SCORE.norm>
0.212925

>  <RMSD>
11.707

$$$$
ligand
 OpenBabel11021811513D
libRbt.so/2013.1/901 2013/11/27
 49 52  0  0  0  0  0  0  0  0999 V2000
   27.4440   10.1437   10.8853 C   0  0  2  0  0  0  0  0  0  0  0  0
   26.5408   11.1763   11.1493 O   0  0  0  0  0  0  0  0  0  0  0  0
   26.6708    8.7772   10.7754 C   0  0  2  0  0  0  0  0  0  0  0  0
   25.6393    8.8763    9.6626 N   0  0  0  0  0  0  0  0  0  0  0  0
   28.3542   16.3052   12.9775 O   0  0  0  0  0  0  0  0  0  0  0  0
   26.0097    8.4220   12.1277 C   0  0  2  0  0  0  0  0  0  0  0  0
   27.4603   21.4064   12.6170 N   0  0  0  0  0  0  0  0  0  0  0  0
   27.0683    8.3472   13.2392 C   0  0  2  0  0  0  0  0  0  0  0  0
   27.8716    9.7092   13.3789 C   0  0  2  0  0  0  0  0  0  0  0  0
   28.4612   10.0465   12.0082 O   0  0  0  0  0  0  0  0  0  0  0  0
   28.9786    9.6078   14.4679 C   0  0  0  0  0  0  0  0  0  0  0  0
   29.4858   10.8646   14.8887 N   0  0  0  0  0  0  0  0  0  0  0  0
   25.7552   15.3344   12.0959 C   0  0  2  0  0  0  0  0  0  0  0  0
   25.9817   16.7186   12.6055 N   0  0  0  0  0  0  0  0  0  0  0  0
   26.2771   14.3254   13.2299 C   0  0  0  0  0  0  0  0  0  0  0  0
   26.0521   12.8330   12.7823 C   0  0  2  0  0  0  0  0  0  0  0  0
   26.5449   11.8983   13.8047 N   0  0  0  0  0  0  0  0  0  0  0  0
   26.8051   12.5508   11.4669 C   0  0  2  0  0  0  0  0  0  0  0  0
   26.3164   13.5330   10.3270 C   0  0  2  0  0  0  0  0  0  0  0  0
   27.0856   13.1791    9.1177 O   0  0  0  0  0  0  0  0  0  0  0  0
   26.6179   15.0507   10.7821 C   0  0  1  0  0  0  0  0  0  0  0  0
   26.1884   15.8982    9.7638 O   0  0  0  0  0  0  0  0  0  0  0  0
   27.1354   13.8364    8.0094 C   0  0  1  0  0  0  0  0  0  0  0  0
   28.2656   13.4151    7.0247 C   0  0  2  0  0  0  0  0  0  0  0  0
   29.3873   14.1958    7.2936 O   0  0  0  0  0  0  0  0  0  0  0  0
   27.6169   13.8120    5.7639 C   0  0  1  0  0  0  0  0  0  0  0  0
   26.1010   13.4580    5.8648 C   0  0  2  0  0  0  0  0  0  0  0  0
   25.9051   13.7989    7.2153 O   0  0  0  0  0  0  0  0  0  0  0  0
   25.6511   12.0688    5.4099 C   0  0  0  0  0  0  0  0  0  0  0  0
   25.9289   11.9965    4.0241 O   0  0  0  0  0  0  0  0  0  0  0  0
   26.7739   16.0973    5.4635 C   0  0  2  0  0  0  0  0  0  0  0  0
   27.8598   15.2826    5.6068 O   0  0  0  0  0  0  0  0  0  0  0  0
   27.1628   17.5427    5.3598 C   0  0  1  0  0  0  0  0  0  0  0  0
   24.0256   17.1391    9.0693 N   0  0  0  0  0  0  0  0  0  0  0  0
   27.5778   18.6264   14.9607 O   0  0  0  0  0  0  0  0  0  0  0  0
   25.8613   18.4280    5.2483 C   0  0  2  0  0  0  0  0  0  0  0  0
   24.8615   18.2301    6.4400 C   0  0  1  0  0  0  0  0  0  0  0  0
   24.4948   16.8353    6.5134 C   0  0  1  0  0  0  0  0  0  0  0  0
   25.7302   15.9615    6.6209 O   0  0  0  0  0  0  0  0  0  0  0  0
   23.5125   16.5798    7.7393 C   0  0  0  0  0  0  0  0  0  0  0  0
   27.8628   17.9385    6.5172 N   0  0  0  0  0  0  0  0  0  0  0  0
   25.4902    7.4083   12.0339 O   0  0  0  0  0  0  0  0  0  0  0  0
   28.5464   19.1247   12.9674 C   0  0  0  0  0  0  0  0  0  0  0  0
   25.3951   18.5258    7.4124 O   0  0  0  0  0  0  0  0  0  0  0  0
   25.3007   18.1217    4.2917 O   0  0  0  0  0  0  0  0  0  0  0  0
   27.3783   17.0673   13.0261 C   0  0  0  0  0  0  0  0  0  0  0  0
   28.4531   20.4953   13.0610 C   0  0  0  0  0  0  0  0  0  0  0  0
   27.4648   18.5972   13.5395 C   0  0  1  0  0  0  0  0  0  0  0  0
   27.9890    7.3229   12.9556 F   0  0  0  0  0  0  0  0  0  0  0  0
  1  2  1  1  0  0  0
  1 10  1  0  0  0  0
  1  3  1  0  0  0  0
  3  4  1  6  0  0  0
  3  6  1  0  0  0  0
  5 46  2  0  0  0  0
  6 42  1  6  0  0  0
  6  8  1  0  0  0  0
  7 47  1  0  0  0  0
  8  9  1  0  0  0  0
  8 49  1  6  0  0  0
  9 10  1  0  0  0  0
  9 11  1  1  0  0  0
 11 12  1  0  0  0  0
 13 14  1  1  0  0  0
 13 15  1  0  0  0  0
 13 21  1  0  0  0  0
 14 46  1  0  0  0  0
 15 16  1  0  0  0  0
 16 17  1  1  0  0  0
 16 18  1  0  0  0  0
 18  2  1  6  0  0  0
 18 19  1  0  0  0  0
 19 20  1  6  0  0  0
 19 21  1  0  0  0  0
 21 22  1  6  0  0  0
 23 20  1  1  0  0  0
 23 24  1  0  0  0  0
 23 28  1  0  0  0  0
 24 25  1  1  0  0  0
 24 26  1  0  0  0  0
 26 27  1  0  0  0  0
 26 32  1  1  0  0  0
 27 28  1  0  0  0  0
 27 29  1  1  0  0  0
 29 30  1  0  0  0  0
 31 32  1  1  0  0  0
 31 33  1  0  0  0  0
 31 39  1  0  0  0  0
 33 36  1  0  0  0  0
 33 41  1  1  0  0  0
 34 40  1  0  0  0  0
 35 48  1  0  0  0  0
 36 37  1  0  0  0  0
 36 45  1  6  0  0  0
 37 38  1  0  0  0  0
 37 44  1  1  0  0  0
 38 39  1  0  0  0  0
 38 40  1  1  0  0  0
 43 47  1  0  0  0  0
 46 48  1  0  0  0  0
 48 43  1  6  0  0  0
M  END
>  <CHROM.1>
172.67730575,-126.06446865,-164.17221301,55.14605097,-170.06772669,166.64707578
-123.58506667,-63.70055341,178.21245773,-51.32873045,-57.09912502,-77.45773916
-75.31926010,26.77472215,14.18281474,9.85783271,0.94316010,1.38990989,-3.10586819

>  <Name>
ligand

>  <RI>
0

>  <Rbt.Current_Directory>
/home/itssahil/PROJECTS/Mol_Feturizer/New_Systems/rnas/4PDQ

>  <Rbt.Executable>
rbdock ($Id: //depot/dev/client3/rdock/2013.1/src/exe/rbdock.cxx#4 $)

>  <Rbt.Library>
libRbt.so (2013.1, Build901 2013/11/27)

>  <Rbt.Parameter_File>
/export/apps/rDock/src/rDock_2013.1_src/data/scripts/dock_solv.prm

>  <Rbt.Receptor>
prm/blind_docking_80.prm

>  <SCORE>
7.23501

>  <SCORE.INTER>
-4.32621

>  <SCORE.INTER.CONST>
1

>  <SCORE.INTER.POLAR>
0

>  <SCORE.INTER.ROT>
13

>  <SCORE.INTER.SOLV>
33.1215

>  <SCORE.INTER.VDW>
-26.1913

>  <SCORE.INTER.norm>
-0.0882899

>  <SCORE.INTRA>
6.96792

>  <SCORE.INTRA.DIHEDRAL>
-14.2503

>  <SCORE.INTRA.DIHEDRAL.0>
34.5115

>  <SCORE.INTRA.POLAR>
0

>  <SCORE.INTRA.POLAR.0>
0

>  <SCORE.INTRA.REPUL>
0.540133

>  <SCORE.INTRA.REPUL.0>
0

>  <SCORE.INTRA.SOLV>
6.30776

>  <SCORE.INTRA.SOLV.lig_0>
-122.812

>  <SCORE.INTRA.VDW>
8.23852

>  <SCORE.INTRA.VDW.0>
-7.46208

>  <SCORE.INTRA.norm>
0.142202

>  <SCORE.RESTR>
4.5933

>  <SCORE.RESTR.CAVITY>
4.5933

>  <SCORE.RESTR.norm>
0.0937407

>  <SCORE.SYSTEM>
0

>  <SCORE.SYSTEM.CONST>
0

>  <SCORE.SYSTEM.DIHEDRAL>
0

>  <SCORE.SYSTEM.SOLV>
0

>  <SCORE.SYSTEM.norm>
0

>  <SCORE.heavy>
49

>  <SCORE.norm>
0.147653

>  <RMSD>
11.718

$$$$
ligand
 OpenBabel11021811513D
libRbt.so/2013.1/901 2013/11/27
 49 52  0  0  0  0  0  0  0  0999 V2000
   26.5175    9.3643   10.7838 C   0  0  2  0  0  0  0  0  0  0  0  0
   25.7629   10.4208   11.2997 O   0  0  0  0  0  0  0  0  0  0  0  0
   25.5792    8.1349   10.4913 C   0  0  2  0  0  0  0  0  0  0  0  0
   24.5049    8.5527    9.4995 N   0  0  0  0  0  0  0  0  0  0  0  0
   27.7620   15.8352   11.2323 O   0  0  0  0  0  0  0  0  0  0  0  0
   24.9589    7.6060   11.8056 C   0  0  2  0  0  0  0  0  0  0  0  0
   30.2250   19.4426   13.1972 N   0  0  0  0  0  0  0  0  0  0  0  0
   26.0629    7.2093   12.7983 C   0  0  2  0  0  0  0  0  0  0  0  0
   27.0321    8.4253   13.1169 C   0  0  2  0  0  0  0  0  0  0  0  0
   27.5783    8.9481   11.7869 O   0  0  0  0  0  0  0  0  0  0  0  0
   28.1795    8.0017   14.0789 C   0  0  0  0  0  0  0  0  0  0  0  0
   28.9973    9.0800   14.5060 N   0  0  0  0  0  0  0  0  0  0  0  0
   25.8423   14.4422   12.9201 C   0  0  2  0  0  0  0  0  0  0  0  0
   26.3221   15.8276   13.1981 N   0  0  0  0  0  0  0  0  0  0  0  0
   27.1002   13.4631   13.1084 C   0  0  0  0  0  0  0  0  0  0  0  0
   26.6749   11.9685   12.8564 C   0  0  2  0  0  0  0  0  0  0  0  0
   27.8238   11.0633   13.0062 N   0  0  0  0  0  0  0  0  0  0  0  0
   26.1152   11.8061   11.4290 C   0  0  2  0  0  0  0  0  0  0  0  0
   24.8743   12.7623   11.2084 C   0  0  2  0  0  0  0  0  0  0  0  0
   24.4113   12.5275    9.8264 O   0  0  0  0  0  0  0  0  0  0  0  0
   25.3515   14.2900   11.4079 C   0  0  1  0  0  0  0  0  0  0  0  0
   24.2486   15.1152   11.2021 O   0  0  0  0  0  0  0  0  0  0  0  0
   24.5472   13.3186    8.8172 C   0  0  1  0  0  0  0  0  0  0  0  0
   24.2445   12.6934    7.4236 C   0  0  2  0  0  0  0  0  0  0  0  0
   25.4337   12.1793    6.9123 O   0  0  0  0  0  0  0  0  0  0  0  0
   23.8346   13.9190    6.7180 C   0  0  1  0  0  0  0  0  0  0  0  0
   22.9952   14.7895    7.7035 C   0  0  2  0  0  0  0  0  0  0  0  0
   23.7327   14.5347    8.8738 O   0  0  0  0  0  0  0  0  0  0  0  0
   21.4826   14.5690    7.7543 C   0  0  0  0  0  0  0  0  0  0  0  0
   20.9444   15.6745    8.4548 O   0  0  0  0  0  0  0  0  0  0  0  0
   25.0431   15.9335    6.0075 C   0  0  2  0  0  0  0  0  0  0  0  0
   25.0966   14.5963    6.2767 O   0  0  0  0  0  0  0  0  0  0  0  0
   26.3616   16.4660    5.5290 C   0  0  1  0  0  0  0  0  0  0  0  0
   22.7525   18.4348    8.9310 N   0  0  0  0  0  0  0  0  0  0  0  0
   26.5566   18.7141   12.7998 O   0  0  0  0  0  0  0  0  0  0  0  0
   26.2413   18.0207    5.2871 C   0  0  2  0  0  0  0  0  0  0  0  0
   25.7720   18.8201    6.5518 C   0  0  1  0  0  0  0  0  0  0  0  0
   24.4984   18.2967    6.9871 C   0  0  1  0  0  0  0  0  0  0  0  0
   24.5872   16.8014    7.2266 O   0  0  0  0  0  0  0  0  0  0  0  0
   24.0032   19.0514    8.2980 C   0  0  0  0  0  0  0  0  0  0  0  0
   27.3528   16.2514    6.5078 N   0  0  0  0  0  0  0  0  0  0  0  0
   24.3157    6.6905   11.5723 O   0  0  0  0  0  0  0  0  0  0  0  0
   28.3693   17.8090   13.8267 C   0  0  0  0  0  0  0  0  0  0  0  0
   26.5439   18.6616    7.3865 O   0  0  0  0  0  0  0  0  0  0  0  0
   25.4489   18.1960    4.4718 O   0  0  0  0  0  0  0  0  0  0  0  0
   27.3161   16.4078   12.2368 C   0  0  0  0  0  0  0  0  0  0  0  0
   29.1585   18.9272   13.9780 C   0  0  0  0  0  0  0  0  0  0  0  0
   27.7271   17.9112   12.6638 C   0  0  1  0  0  0  0  0  0  0  0  0
   26.8346    6.1626   12.2633 F   0  0  0  0  0  0  0  0  0  0  0  0
  1  2  1  1  0  0  0
  1 10  1  0  0  0  0
  1  3  1  0  0  0  0
  3  4  1  6  0  0  0
  3  6  1  0  0  0  0
  5 46  2  0  0  0  0
  6 42  1  6  0  0  0
  6  8  1  0  0  0  0
  7 47  1  0  0  0  0
  8  9  1  0  0  0  0
  8 49  1  6  0  0  0
  9 10  1  0  0  0  0
  9 11  1  1  0  0  0
 11 12  1  0  0  0  0
 13 14  1  6  0  0  0
 13 15  1  0  0  0  0
 13 21  1  0  0  0  0
 14 46  1  0  0  0  0
 15 16  1  0  0  0  0
 16 17  1  6  0  0  0
 16 18  1  0  0  0  0
 18  2  1  1  0  0  0
 18 19  1  0  0  0  0
 19 20  1  6  0  0  0
 19 21  1  0  0  0  0
 21 22  1  1  0  0  0
 23 20  1  1  0  0  0
 23 24  1  0  0  0  0
 23 28  1  0  0  0  0
 24 25  1  6  0  0  0
 24 26  1  0  0  0  0
 26 27  1  0  0  0  0
 26 32  1  1  0  0  0
 27 28  1  0  0  0  0
 27 29  1  1  0  0  0
 29 30  1  0  0  0  0
 31 32  1  1  0  0  0
 31 33  1  0  0  0  0
 31 39  1  0  0  0  0
 33 36  1  0  0  0  0
 33 41  1  1  0  0  0
 34 40  1  0  0  0  0
 35 48  1  0  0  0  0
 36 37  1  0  0  0  0
 36 45  1  6  0  0  0
 37 38  1  0  0  0  0
 37 44  1  1  0  0  0
 38 39  1  0  0  0  0
 38 40  1  1  0  0  0
 43 47  1  0  0  0  0
 46 48  1  0  0  0  0
 48 43  1  1  0  0  0
M  END
>  <CHROM.1>
-164.56646998,-94.03976588,-173.93325730,66.44995635,-107.34567037,167.18921850
-158.44803826,-166.02918615,-177.86415468,-172.37819031,-60.26519273,-83.05078061
124.58801218,25.76449279,13.80683632,10.11507756,1.37389200,1.01253382,2.86952209

>  <Name>
ligand

>  <RI>
0

>  <Rbt.Current_Directory>
/home/itssahil/PROJECTS/Mol_Feturizer/New_Systems/rnas/4PDQ

>  <Rbt.Executable>
rbdock ($Id: //depot/dev/client3/rdock/2013.1/src/exe/rbdock.cxx#4 $)

>  <Rbt.Library>
libRbt.so (2013.1, Build901 2013/11/27)

>  <Rbt.Parameter_File>
/export/apps/rDock/src/rDock_2013.1_src/data/scripts/dock_solv.prm

>  <Rbt.Receptor>
prm/blind_docking_60.prm

>  <SCORE>
5.78572

>  <SCORE.INTER>
2.91482

>  <SCORE.INTER.CONST>
1

>  <SCORE.INTER.POLAR>
0

>  <SCORE.INTER.ROT>
13

>  <SCORE.INTER.SOLV>
32.5339

>  <SCORE.INTER.VDW>
-21.1681

>  <SCORE.INTER.norm>
0.0594862

>  <SCORE.INTRA>
-0.705039

>  <SCORE.INTRA.DIHEDRAL>
-16.1596

>  <SCORE.INTRA.DIHEDRAL.0>
34.5115

>  <SCORE.INTRA.POLAR>
0

>  <SCORE.INTRA.POLAR.0>
0

>  <SCORE.INTRA.REPUL>
0.0131026

>  <SCORE.INTRA.REPUL.0>
0

>  <SCORE.INTRA.SOLV>
4.30506

>  <SCORE.INTRA.SOLV.lig_0>
-122.812

>  <SCORE.INTRA.VDW>
5.15672

>  <SCORE.INTRA.VDW.0>
-7.46208

>  <SCORE.INTRA.norm>
-0.0143886

>  <SCORE.RESTR>
3.57594

>  <SCORE.RESTR.CAVITY>
3.57594

>  <SCORE.RESTR.norm>
0.0729783

>  <SCORE.SYSTEM>
0

>  <SCORE.SYSTEM.CONST>
0

>  <SCORE.SYSTEM.DIHEDRAL>
0

>  <SCORE.SYSTEM.SOLV>
0

>  <SCORE.SYSTEM.norm>
0

>  <SCORE.heavy>
49

>  <SCORE.norm>
0.118076

>  <RMSD>
11.725

$$$$
ligand
 OpenBabel11021811513D
libRbt.so/2013.1/901 2013/11/27
 49 52  0  0  0  0  0  0  0  0999 V2000
   25.7343   12.3435   12.9100 C   0  0  2  0  0  0  0  0  0  0  0  0
   26.3657   13.5897   12.9246 O   0  0  0  0  0  0  0  0  0  0  0  0
   26.3185   11.4388   14.0577 C   0  0  2  0  0  0  0  0  0  0  0  0
   26.1001   12.1278   15.3956 N   0  0  0  0  0  0  0  0  0  0  0  0
   25.6904   17.7982    8.9975 O   0  0  0  0  0  0  0  0  0  0  0  0
   27.8179   11.1533   13.8081 C   0  0  2  0  0  0  0  0  0  0  0  0
   24.9340   23.2175    8.5075 N   0  0  0  0  0  0  0  0  0  0  0  0
   28.0150   10.4756   12.4429 C   0  0  2  0  0  0  0  0  0  0  0  0
   27.4353   11.3593   11.2585 C   0  0  2  0  0  0  0  0  0  0  0  0
   25.9691   11.6603   11.5747 O   0  0  0  0  0  0  0  0  0  0  0  0
   27.5884   10.6422    9.8859 C   0  0  0  0  0  0  0  0  0  0  0  0
   27.7371   11.5298    8.7887 N   0  0  0  0  0  0  0  0  0  0  0  0
   24.9279   17.5211   11.7933 C   0  0  2  0  0  0  0  0  0  0  0  0
   24.8105   18.8018   11.0363 N   0  0  0  0  0  0  0  0  0  0  0  0
   26.4923   17.2682   12.0485 C   0  0  0  0  0  0  0  0  0  0  0  0
   26.7072   15.9414   12.8679 C   0  0  2  0  0  0  0  0  0  0  0  0
   28.1383   15.6880   13.0908 N   0  0  0  0  0  0  0  0  0  0  0  0
   26.1176   14.7398   12.1028 C   0  0  2  0  0  0  0  0  0  0  0  0
   24.5746   14.9593   11.8308 C   0  0  2  0  0  0  0  0  0  0  0  0
   24.1073   13.7608   11.1065 O   0  0  0  0  0  0  0  0  0  0  0  0
   24.3870   16.2875   10.9352 C   0  0  1  0  0  0  0  0  0  0  0  0
   23.0249   16.4587   10.7004 O   0  0  0  0  0  0  0  0  0  0  0  0
   24.2232   13.5221    9.8446 C   0  0  1  0  0  0  0  0  0  0  0  0
   23.5402   12.2174    9.3387 C   0  0  2  0  0  0  0  0  0  0  0  0
   24.4742   11.1862    9.4048 O   0  0  0  0  0  0  0  0  0  0  0  0
   23.2832   12.6294    7.9487 C   0  0  1  0  0  0  0  0  0  0  0  0
   22.8494   14.1278    7.9582 C   0  0  2  0  0  0  0  0  0  0  0  0
   23.7169   14.5811    8.9683 O   0  0  0  0  0  0  0  0  0  0  0  0
   21.3610   14.4487    8.1026 C   0  0  0  0  0  0  0  0  0  0  0  0
   21.0149   14.1308    9.4375 O   0  0  0  0  0  0  0  0  0  0  0  0
   25.4234   13.4483    7.0699 C   0  0  2  0  0  0  0  0  0  0  0  0
   24.5585   12.3997    7.1957 O   0  0  0  0  0  0  0  0  0  0  0  0
   26.2562   13.3466    5.8260 C   0  0  1  0  0  0  0  0  0  0  0  0
   29.7077   15.3138    9.2575 N   0  0  0  0  0  0  0  0  0  0  0  0
   23.6728   20.6058    8.9572 O   0  0  0  0  0  0  0  0  0  0  0  0
   27.2647   14.5590    5.7710 C   0  0  2  0  0  0  0  0  0  0  0  0
   28.1963   14.6604    7.0283 C   0  0  1  0  0  0  0  0  0  0  0  0
   27.3732   14.7670    8.2101 C   0  0  1  0  0  0  0  0  0  0  0  0
   26.3932   13.6117    8.2864 O   0  0  0  0  0  0  0  0  0  0  0  0
   28.2788   14.8283    9.5175 C   0  0  0  0  0  0  0  0  0  0  0  0
   27.0070   12.1540    5.8439 N   0  0  0  0  0  0  0  0  0  0  0  0
   28.2080   10.4626   14.6310 O   0  0  0  0  0  0  0  0  0  0  0  0
   25.7896   21.0894    9.6245 C   0  0  0  0  0  0  0  0  0  0  0  0
   28.8194   13.6987    7.0948 O   0  0  0  0  0  0  0  0  0  0  0  0
   26.6528   15.5324    5.7331 O   0  0  0  0  0  0  0  0  0  0  0  0
   25.2487   18.7856    9.6022 C   0  0  0  0  0  0  0  0  0  0  0  0
   25.9003   22.2569    8.9028 C   0  0  0  0  0  0  0  0  0  0  0  0
   25.0494   20.2359    8.9180 C   0  0  1  0  0  0  0  0  0  0  0  0
   27.3565    9.2333   12.4253 F   0  0  0  0  0  0  0  0  0  0  0  0
  1  2  1  6  0  0  0
  1 10  1  0  0  0  0
  1  3  1  0  0  0  0
  3  4  1  1  0  0  0
  3  6  1  0  0  0  0
  5 46  2  0  0  0  0
  6 42  1  1  0  0  0
  6  8  1  0  0  0  0
  7 47  1  0  0  0  0
  8  9  1  0  0  0  0
  8 49  1  1  0  0  0
  9 10  1  0  0  0  0
  9 11  1  6  0  0  0
 11 12  1  0  0  0  0
 13 14  1  6  0  0  0
 13 15  1  0  0  0  0
 13 21  1  0  0  0  0
 14 46  1  0  0  0  0
 15 16  1  0  0  0  0
 16 17  1  6  0  0  0
 16 18  1  0  0  0  0
 18  2  1  1  0  0  0
 18 19  1  0  0  0  0
 19 20  1  6  0  0  0
 19 21  1  0  0  0  0
 21 22  1  1  0  0  0
 23 20  1  1  0  0  0
 23 24  1  0  0  0  0
 23 28  1  0  0  0  0
 24 25  1  6  0  0  0
 24 26  1  0  0  0  0
 26 27  1  0  0  0  0
 26 32  1  6  0  0  0
 27 28  1  0  0  0  0
 27 29  1  1  0  0  0
 29 30  1  0  0  0  0
 31 32  1  1  0  0  0
 31 33  1  0  0  0  0
 31 39  1  0  0  0  0
 33 36  1  0  0  0  0
 33 41  1  1  0  0  0
 34 40  1  0  0  0  0
 35 48  1  0  0  0  0
 36 37  1  0  0  0  0
 36 45  1  1  0  0  0
 37 38  1  0  0  0  0
 37 44  1  1  0  0  0
 38 39  1  0  0  0  0
 38 40  1  1  0  0  0
 43 47  1  0  0  0  0
 46 48  1  0  0  0  0
 48 43  1  1  0  0  0
M  END
>  <CHROM.1>
-177.16905561,159.77307222,-150.23563083,71.75596417,-81.45836116,-175.62435999
-94.00338904,71.07663465,-152.02730774,22.94891366,65.12369008,-74.46086756
118.67994499,25.79736208,14.57731112,9.98063996,-0.31318965,-1.35186949,0.91922725

>  <Name>
ligand

>  <RI>
0

>  <Rbt.Current_Directory>
/home/itssahil/PROJECTS/Mol_Feturizer/New_Systems/rnas/4PDQ

>  <Rbt.Executable>
rbdock ($Id: //depot/dev/client3/rdock/2013.1/src/exe/rbdock.cxx#4 $)

>  <Rbt.Library>
libRbt.so (2013.1, Build901 2013/11/27)

>  <Rbt.Parameter_File>
/export/apps/rDock/src/rDock_2013.1_src/data/scripts/dock_solv.prm

>  <Rbt.Receptor>
prm/blind_docking_80.prm

>  <SCORE>
5.3968

>  <SCORE.INTER>
0.312047

>  <SCORE.INTER.CONST>
1

>  <SCORE.INTER.POLAR>
0

>  <SCORE.INTER.ROT>
13

>  <SCORE.INTER.SOLV>
31.5301

>  <SCORE.INTER.VDW>
-22.5687

>  <SCORE.INTER.norm>
0.0063683

>  <SCORE.INTRA>
0.0133516

>  <SCORE.INTRA.DIHEDRAL>
-14.5433

>  <SCORE.INTRA.DIHEDRAL.0>
34.5115

>  <SCORE.INTRA.POLAR>
0

>  <SCORE.INTRA.POLAR.0>
0

>  <SCORE.INTRA.REPUL>
0.151068

>  <SCORE.INTRA.REPUL.0>
0

>  <SCORE.INTRA.SOLV>
9.93089

>  <SCORE.INTRA.SOLV.lig_0>
-122.812

>  <SCORE.INTRA.VDW>
1.56421

>  <SCORE.INTRA.VDW.0>
-7.46208

>  <SCORE.INTRA.norm>
0.000272481

>  <SCORE.RESTR>
5.0714

>  <SCORE.RESTR.CAVITY>
5.0714

>  <SCORE.RESTR.norm>
0.103498

>  <SCORE.SYSTEM>
0

>  <SCORE.SYSTEM.CONST>
0

>  <SCORE.SYSTEM.DIHEDRAL>
0

>  <SCORE.SYSTEM.SOLV>
0

>  <SCORE.SYSTEM.norm>
0

>  <SCORE.heavy>
49

>  <SCORE.norm>
0.110139

>  <RMSD>
11.735

$$$$
ligand
 OpenBabel11021811513D
libRbt.so/2013.1/901 2013/11/27
 49 52  0  0  0  0  0  0  0  0999 V2000
   26.1280    8.6796   14.9344 C   0  0  2  0  0  0  0  0  0  0  0  0
   26.5459    9.5091   13.8907 O   0  0  0  0  0  0  0  0  0  0  0  0
   25.7859    9.5503   16.2000 C   0  0  2  0  0  0  0  0  0  0  0  0
   24.6910   10.5428   15.8411 N   0  0  0  0  0  0  0  0  0  0  0  0
   29.1604    6.9116    8.5298 O   0  0  0  0  0  0  0  0  0  0  0  0
   27.0531   10.2705   16.7171 C   0  0  2  0  0  0  0  0  0  0  0  0
   30.7995    6.7589    4.7519 N   0  0  0  0  0  0  0  0  0  0  0  0
   28.1508    9.2493   17.0539 C   0  0  2  0  0  0  0  0  0  0  0  0
   28.5221    8.3497   15.7999 C   0  0  2  0  0  0  0  0  0  0  0  0
   27.2328    7.7017   15.2918 O   0  0  0  0  0  0  0  0  0  0  0  0
   29.5940    7.2816   16.1631 C   0  0  0  0  0  0  0  0  0  0  0  0
   29.9677    6.4512   15.0747 N   0  0  0  0  0  0  0  0  0  0  0  0
   27.6646    9.1069    9.7206 C   0  0  2  0  0  0  0  0  0  0  0  0
   27.5694    8.7399    8.2772 N   0  0  0  0  0  0  0  0  0  0  0  0
   27.1868    7.8268   10.5629 C   0  0  0  0  0  0  0  0  0  0  0  0
   27.2796    8.1200   12.1068 C   0  0  2  0  0  0  0  0  0  0  0  0
   26.8252    6.9612   12.8895 N   0  0  0  0  0  0  0  0  0  0  0  0
   26.3952    9.3280   12.4749 C   0  0  2  0  0  0  0  0  0  0  0  0
   26.8378   10.6082   11.6574 C   0  0  2  0  0  0  0  0  0  0  0  0
   25.9425   11.7017   12.0840 O   0  0  0  0  0  0  0  0  0  0  0  0
   26.6713   10.3040   10.0822 C   0  0  1  0  0  0  0  0  0  0  0  0
   27.0576   11.4437    9.3812 O   0  0  0  0  0  0  0  0  0  0  0  0
   25.5768   12.7226   11.3862 C   0  0  1  0  0  0  0  0  0  0  0  0
   24.6538   13.7431   12.1150 C   0  0  2  0  0  0  0  0  0  0  0  0
   23.3312   13.3746   11.8807 O   0  0  0  0  0  0  0  0  0  0  0  0
   25.0233   14.9514   11.3590 C   0  0  1  0  0  0  0  0  0  0  0  0
   26.5586   14.9041   11.0872 C   0  0  2  0  0  0  0  0  0  0  0  0
   26.6766   13.5238   10.8438 O   0  0  0  0  0  0  0  0  0  0  0  0
   27.4958   15.5259   12.1236 C   0  0  0  0  0  0  0  0  0  0  0  0
   27.1444   16.8943   12.2051 O   0  0  0  0  0  0  0  0  0  0  0  0
   24.5210   15.8303    9.1232 C   0  0  2  0  0  0  0  0  0  0  0  0
   24.2104   14.9287   10.1000 O   0  0  0  0  0  0  0  0  0  0  0  0
   23.3546   16.1099    8.2218 C   0  0  1  0  0  0  0  0  0  0  0  0
   28.4630   15.1824    7.1968 N   0  0  0  0  0  0  0  0  0  0  0  0
   26.7995    7.4047    5.9167 O   0  0  0  0  0  0  0  0  0  0  0  0
   23.7974   17.1166    7.0902 C   0  0  2  0  0  0  0  0  0  0  0  0
   25.0167   16.6136    6.2422 C   0  0  1  0  0  0  0  0  0  0  0  0
   26.1281   16.3611    7.1291 C   0  0  1  0  0  0  0  0  0  0  0  0
   25.7278   15.3950    8.2279 O   0  0  0  0  0  0  0  0  0  0  0  0
   27.3775   15.8056    6.3145 C   0  0  0  0  0  0  0  0  0  0  0  0
   22.9260   14.9182    7.6034 N   0  0  0  0  0  0  0  0  0  0  0  0
   26.7878   10.8623   17.6582 O   0  0  0  0  0  0  0  0  0  0  0  0
   28.8902    8.2299    5.5881 C   0  0  0  0  0  0  0  0  0  0  0  0
   24.7195   15.6306    5.7295 O   0  0  0  0  0  0  0  0  0  0  0  0
   24.1259   18.0980    7.5924 O   0  0  0  0  0  0  0  0  0  0  0  0
   28.4066    7.5855    7.8134 C   0  0  0  0  0  0  0  0  0  0  0  0
   30.1943    7.7952    5.5087 C   0  0  0  0  0  0  0  0  0  0  0  0
   28.1853    7.3043    6.2375 C   0  0  1  0  0  0  0  0  0  0  0  0
   27.7153    8.4013   18.0876 F   0  0  0  0  0  0  0  0  0  0  0  0
  1  2  1  6  0  0  0
  1 10  1  0  0  0  0
  1  3  1  0  0  0  0
  3  4  1  6  0  0  0
  3  6  1  0  0  0  0
  5 46  2  0  0  0  0
  6 42  1  1  0  0  0
  6  8  1  0  0  0  0
  7 47  1  0  0  0  0
  8  9  1  0  0  0  0
  8 49  1  1  0  0  0
  9 10  1  0  0  0  0
  9 11  1  1  0  0  0
 11 12  1  0  0  0  0
 13 14  1  6  0  0  0
 13 15  1  0  0  0  0
 13 21  1  0  0  0  0
 14 46  1  0  0  0  0
 15 16  1  0  0  0  0
 16 17  1  1  0  0  0
 16 18  1  0  0  0  0
 18  2  1  1  0  0  0
 18 19  1  0  0  0  0
 19 20  1  1  0  0  0
 19 21  1  0  0  0  0
 21 22  1  6  0  0  0
 23 20  1  1  0  0  0
 23 24  1  0  0  0  0
 23 28  1  0  0  0  0
 24 25  1  6  0  0  0
 24 26  1  0  0  0  0
 26 27  1  0  0  0  0
 26 32  1  6  0  0  0
 27 28  1  0  0  0  0
 27 29  1  1  0  0  0
 29 30  1  0  0  0  0
 31 32  1  1  0  0  0
 31 33  1  0  0  0  0
 31 39  1  0  0  0  0
 33 36  1  0  0  0  0
 33 41  1  6  0  0  0
 34 40  1  0  0  0  0
 35 48  1  0  0  0  0
 36 37  1  0  0  0  0
 36 45  1  1  0  0  0
 37 38  1  0  0  0  0
 37 44  1  1  0  0  0
 38 39  1  0  0  0  0
 38 40  1  6  0  0  0
 43 47  1  0  0  0  0
 46 48  1  0  0  0  0
 48 43  1  6  0  0  0
M  END
>  <CHROM.1>
-149.19385797,-67.28725865,-179.76359053,-60.65159529,-151.26757608,-178.25178862
-169.72361860,-60.53742469,-155.89461712,-165.34670987,71.26718545,-157.24540164
136.81876970,26.66526606,11.45311298,10.85328918,0.98880594,-1.15192320,1.81692000

>  <Name>
ligand

>  <RI>
0

>  <Rbt.Current_Directory>
/home/itssahil/PROJECTS/Mol_Feturizer/New_Systems/rnas/4PDQ

>  <Rbt.Executable>
rbdock ($Id: //depot/dev/client3/rdock/2013.1/src/exe/rbdock.cxx#4 $)

>  <Rbt.Library>
libRbt.so (2013.1, Build901 2013/11/27)

>  <Rbt.Parameter_File>
/export/apps/rDock/src/rDock_2013.1_src/data/scripts/dock_solv.prm

>  <Rbt.Receptor>
prm/pocket_docking_8.prm

>  <SCORE>
-4.03546

>  <SCORE.INTER>
1.64364

>  <SCORE.INTER.CONST>
1

>  <SCORE.INTER.POLAR>
0

>  <SCORE.INTER.ROT>
13

>  <SCORE.INTER.SOLV>
19.0095

>  <SCORE.INTER.VDW>
-17.5074

>  <SCORE.INTER.norm>
0.0335437

>  <SCORE.INTRA>
-5.6791

>  <SCORE.INTRA.DIHEDRAL>
-20.1263

>  <SCORE.INTRA.DIHEDRAL.0>
34.5115

>  <SCORE.INTRA.POLAR>
0

>  <SCORE.INTRA.POLAR.0>
0

>  <SCORE.INTRA.REPUL>
0.0664297

>  <SCORE.INTRA.REPUL.0>
0

>  <SCORE.INTRA.SOLV>
-0.42109

>  <SCORE.INTRA.SOLV.lig_0>
-122.812

>  <SCORE.INTRA.VDW>
4.26244

>  <SCORE.INTRA.VDW.0>
-7.46208

>  <SCORE.INTRA.norm>
-0.1159

>  <SCORE.RESTR>
0

>  <SCORE.RESTR.CAVITY>
0

>  <SCORE.RESTR.norm>
0

>  <SCORE.SYSTEM>
0

>  <SCORE.SYSTEM.CONST>
0

>  <SCORE.SYSTEM.DIHEDRAL>
0

>  <SCORE.SYSTEM.SOLV>
0

>  <SCORE.SYSTEM.norm>
0

>  <SCORE.heavy>
49

>  <SCORE.norm>
-0.0823563

>  <RMSD>
11.748

$$$$
ligand
 OpenBabel11021811513D
libRbt.so/2013.1/901 2013/11/27
 49 52  0  0  0  0  0  0  0  0999 V2000
   26.0817   12.3477   13.2480 C   0  0  2  0  0  0  0  0  0  0  0  0
   26.6996   13.5842   13.0452 O   0  0  0  0  0  0  0  0  0  0  0  0
   26.7590   11.6083   14.4612 C   0  0  2  0  0  0  0  0  0  0  0  0
   26.6337   12.4738   15.7052 N   0  0  0  0  0  0  0  0  0  0  0  0
   25.4316   17.6759    9.1588 O   0  0  0  0  0  0  0  0  0  0  0  0
   28.2385   11.2915   14.1409 C   0  0  2  0  0  0  0  0  0  0  0  0
   24.7751   17.9527    6.7580 N   0  0  0  0  0  0  0  0  0  0  0  0
   28.3405   10.4336   12.8700 C   0  0  2  0  0  0  0  0  0  0  0  0
   27.6652   11.1470   11.6231 C   0  0  2  0  0  0  0  0  0  0  0  0
   26.2236   11.4884   12.0045 O   0  0  0  0  0  0  0  0  0  0  0  0
   27.7231   10.2490   10.3535 C   0  0  0  0  0  0  0  0  0  0  0  0
   26.9075    9.0903   10.4330 N   0  0  0  0  0  0  0  0  0  0  0  0
   24.7274   17.2895   11.9569 C   0  0  2  0  0  0  0  0  0  0  0  0
   24.4174   18.5377   11.2000 N   0  0  0  0  0  0  0  0  0  0  0  0
   26.3202   17.2405   12.1495 C   0  0  0  0  0  0  0  0  0  0  0  0
   26.7352   15.9596   12.9650 C   0  0  2  0  0  0  0  0  0  0  0  0
   28.1947   15.8928   13.1307 N   0  0  0  0  0  0  0  0  0  0  0  0
   26.2741   14.6856   12.2293 C   0  0  2  0  0  0  0  0  0  0  0  0
   24.7061   14.7040   12.0192 C   0  0  2  0  0  0  0  0  0  0  0  0
   24.3674   13.4491   11.3194 O   0  0  0  0  0  0  0  0  0  0  0  0
   24.3149   15.9891   11.1265 C   0  0  1  0  0  0  0  0  0  0  0  0
   22.9339   15.9831   10.9465 O   0  0  0  0  0  0  0  0  0  0  0  0
   24.4820   13.2085   10.0577 C   0  0  1  0  0  0  0  0  0  0  0  0
   23.9775   11.8124    9.5879 C   0  0  2  0  0  0  0  0  0  0  0  0
   25.0495   10.9247    9.6398 O   0  0  0  0  0  0  0  0  0  0  0  0
   23.6274   12.1612    8.2009 C   0  0  1  0  0  0  0  0  0  0  0  0
   22.9861   13.5832    8.2045 C   0  0  2  0  0  0  0  0  0  0  0  0
   23.8075   14.1710    9.1834 O   0  0  0  0  0  0  0  0  0  0  0  0
   21.4717   13.6929    8.3879 C   0  0  0  0  0  0  0  0  0  0  0  0
   21.1437   15.0522    8.1704 O   0  0  0  0  0  0  0  0  0  0  0  0
   25.8299   13.0798    7.6276 C   0  0  2  0  0  0  0  0  0  0  0  0
   24.9018   12.1017    7.4144 O   0  0  0  0  0  0  0  0  0  0  0  0
   25.5007   14.3414    6.8853 C   0  0  1  0  0  0  0  0  0  0  0  0
   29.9595   12.9168    5.5424 N   0  0  0  0  0  0  0  0  0  0  0  0
   24.6376   21.0586   10.0026 O   0  0  0  0  0  0  0  0  0  0  0  0
   26.6373   15.4072    7.1352 C   0  0  2  0  0  0  0  0  0  0  0  0
   28.0676   14.9089    6.7295 C   0  0  1  0  0  0  0  0  0  0  0  0
   28.3652   13.7011    7.4630 C   0  0  1  0  0  0  0  0  0  0  0  0
   27.2858   12.6590    7.2397 O   0  0  0  0  0  0  0  0  0  0  0  0
   29.7936   13.1341    7.0492 C   0  0  0  0  0  0  0  0  0  0  0  0
   25.4390   14.0848    5.5008 N   0  0  0  0  0  0  0  0  0  0  0  0
   28.6958   10.7199   15.0186 O   0  0  0  0  0  0  0  0  0  0  0  0
   25.2126   20.1321    8.0099 C   0  0  0  0  0  0  0  0  0  0  0  0
   28.0622   14.6702    5.6068 O   0  0  0  0  0  0  0  0  0  0  0  0
   26.6733   15.6348    8.2622 O   0  0  0  0  0  0  0  0  0  0  0  0
   24.8488   18.5864    9.7647 C   0  0  0  0  0  0  0  0  0  0  0  0
   24.6989   19.3484    7.0010 C   0  0  0  0  0  0  0  0  0  0  0  0
   24.4326   19.9901    9.0808 C   0  0  1  0  0  0  0  0  0  0  0  0
   27.6953    9.2005   13.0714 F   0  0  0  0  0  0  0  0  0  0  0  0
  1  2  1  6  0  0  0
  1 10  1  0  0  0  0
  1  3  1  0  0  0  0
  3  4  1  1  0  0  0
  3  6  1  0  0  0  0
  5 46  2  0  0  0  0
  6 42  1  1  0  0  0
  6  8  1  0  0  0  0
  7 47  1  0  0  0  0
  8  9  1  0  0  0  0
  8 49  1  1  0  0  0
  9 10  1  0  0  0  0
  9 11  1  6  0  0  0
 11 12  1  0  0  0  0
 13 14  1  6  0  0  0
 13 15  1  0  0  0  0
 13 21  1  0  0  0  0
 14 46  1  0  0  0  0
 15 16  1  0  0  0  0
 16 17  1  6  0  0  0
 16 18  1  0  0  0  0
 18  2  1  1  0  0  0
 18 19  1  0  0  0  0
 19 20  1  6  0  0  0
 19 21  1  0  0  0  0
 21 22  1  1  0  0  0
 23 20  1  1  0  0  0
 23 24  1  0  0  0  0
 23 28  1  0  0  0  0
 24 25  1  6  0  0  0
 24 26  1  0  0  0  0
 26 27  1  0  0  0  0
 26 32  1  6  0  0  0
 27 28  1  0  0  0  0
 27 29  1  1  0  0  0
 29 30  1  0  0  0  0
 31 32  1  6  0  0  0
 31 33  1  0  0  0  0
 31 39  1  0  0  0  0
 33 36  1  0  0  0  0
 33 41  1  6  0  0  0
 34 40  1  0  0  0  0
 35 48  1  0  0  0  0
 36 37  1  0  0  0  0
 36 45  1  1  0  0  0
 37 38  1  0  0  0  0
 37 44  1  6  0  0  0
 38 39  1  0  0  0  0
 38 40  1  6  0  0  0
 43 47  1  0  0  0  0
 46 48  1  0  0  0  0
 48 43  1  6  0  0  0
M  END
>  <CHROM.1>
-167.59355331,146.37239071,68.33872317,69.24461038,-80.30362903,-177.01059917
-71.34119687,-172.23410622,-80.42932376,-54.26518390,-78.46872601,-161.67696526
-141.21507099,25.87005602,14.23336442,9.97666578,0.57501122,-1.20545566,1.59552179

>  <Name>
ligand

>  <RI>
0

>  <Rbt.Current_Directory>
/home/itssahil/PROJECTS/Mol_Feturizer/New_Systems/rnas/4PDQ

>  <Rbt.Executable>
rbdock ($Id: //depot/dev/client3/rdock/2013.1/src/exe/rbdock.cxx#4 $)

>  <Rbt.Library>
libRbt.so (2013.1, Build901 2013/11/27)

>  <Rbt.Parameter_File>
/export/apps/rDock/src/rDock_2013.1_src/data/scripts/dock_solv.prm

>  <Rbt.Receptor>
prm/blind_docking_80.prm

>  <SCORE>
11.0893

>  <SCORE.INTER>
6.35455

>  <SCORE.INTER.CONST>
1

>  <SCORE.INTER.POLAR>
0

>  <SCORE.INTER.ROT>
13

>  <SCORE.INTER.SOLV>
26.1555

>  <SCORE.INTER.VDW>
-16.7488

>  <SCORE.INTER.norm>
0.129685

>  <SCORE.INTRA>
-0.0385099

>  <SCORE.INTRA.DIHEDRAL>
-20.8737

>  <SCORE.INTRA.DIHEDRAL.0>
34.5115

>  <SCORE.INTRA.POLAR>
0

>  <SCORE.INTRA.POLAR.0>
0

>  <SCORE.INTRA.REPUL>
0

>  <SCORE.INTRA.REPUL.0>
0

>  <SCORE.INTRA.SOLV>
8.73649

>  <SCORE.INTRA.SOLV.lig_0>
-122.812

>  <SCORE.INTRA.VDW>
6.03008

>  <SCORE.INTRA.VDW.0>
-7.46208

>  <SCORE.INTRA.norm>
-0.000785915

>  <SCORE.RESTR>
4.77322

>  <SCORE.RESTR.CAVITY>
4.77322

>  <SCORE.RESTR.norm>
0.0974127

>  <SCORE.SYSTEM>
0

>  <SCORE.SYSTEM.CONST>
0

>  <SCORE.SYSTEM.DIHEDRAL>
0

>  <SCORE.SYSTEM.SOLV>
0

>  <SCORE.SYSTEM.norm>
0

>  <SCORE.heavy>
49

>  <SCORE.norm>
0.226312

>  <RMSD>
11.761

$$$$
ligand
 OpenBabel11021811513D
libRbt.so/2013.1/901 2013/11/27
 49 52  0  0  0  0  0  0  0  0999 V2000
   26.6756   15.9734   11.7331 C   0  0  2  0  0  0  0  0  0  0  0  0
   25.6653   15.1641   12.2588 O   0  0  0  0  0  0  0  0  0  0  0  0
   27.4079   16.7339   12.9004 C   0  0  2  0  0  0  0  0  0  0  0  0
   27.9931   15.7171   13.8679 N   0  0  0  0  0  0  0  0  0  0  0  0
   27.1023    8.9875    9.7409 O   0  0  0  0  0  0  0  0  0  0  0  0
   26.4289   17.6945   13.6151 C   0  0  2  0  0  0  0  0  0  0  0  0
   23.7928    6.4951   12.2397 N   0  0  0  0  0  0  0  0  0  0  0  0
   25.8362   18.6988   12.6143 C   0  0  2  0  0  0  0  0  0  0  0  0
   25.0898   17.9675   11.4194 C   0  0  2  0  0  0  0  0  0  0  0  0
   26.0785   16.9918   10.7786 O   0  0  0  0  0  0  0  0  0  0  0  0
   24.5406   18.9887   10.3815 C   0  0  0  0  0  0  0  0  0  0  0  0
   25.5517   19.6465    9.6339 N   0  0  0  0  0  0  0  0  0  0  0  0
   26.8529   11.0176   11.8124 C   0  0  2  0  0  0  0  0  0  0  0  0
   26.9757    9.5597   12.1062 N   0  0  0  0  0  0  0  0  0  0  0  0
   27.1214   11.7981   13.1890 C   0  0  0  0  0  0  0  0  0  0  0  0
   27.0350   13.3538   12.9637 C   0  0  2  0  0  0  0  0  0  0  0  0
   27.2593   14.0798   14.2224 N   0  0  0  0  0  0  0  0  0  0  0  0
   25.6424   13.7389   12.4258 C   0  0  2  0  0  0  0  0  0  0  0  0
   25.3439   12.9821   11.0689 C   0  0  2  0  0  0  0  0  0  0  0  0
   24.0024   13.4211   10.6365 O   0  0  0  0  0  0  0  0  0  0  0  0
   25.3737   11.3926   11.3411 C   0  0  1  0  0  0  0  0  0  0  0  0
   25.1014   10.7454   10.1383 O   0  0  0  0  0  0  0  0  0  0  0  0
   23.7242   14.2357    9.6764 C   0  0  1  0  0  0  0  0  0  0  0  0
   22.2427   14.2338    9.1970 C   0  0  2  0  0  0  0  0  0  0  0  0
   22.1233   13.3076    8.1636 O   0  0  0  0  0  0  0  0  0  0  0  0
   22.1722   15.6172    8.6978 C   0  0  1  0  0  0  0  0  0  0  0  0
   22.9777   16.5282    9.6748 C   0  0  2  0  0  0  0  0  0  0  0  0
   24.0333   15.6408    9.9517 O   0  0  0  0  0  0  0  0  0  0  0  0
   22.2384   17.1461   10.8625 C   0  0  0  0  0  0  0  0  0  0  0  0
   22.1893   16.1460   11.8625 O   0  0  0  0  0  0  0  0  0  0  0  0
   24.0900   15.3829    7.1844 C   0  0  2  0  0  0  0  0  0  0  0  0
   22.7483   15.5984    7.3143 O   0  0  0  0  0  0  0  0  0  0  0  0
   24.8545   16.6641    7.0260 C   0  0  1  0  0  0  0  0  0  0  0  0
   25.5113   11.8146    4.7241 N   0  0  0  0  0  0  0  0  0  0  0  0
   28.5377    6.8691   11.9280 O   0  0  0  0  0  0  0  0  0  0  0  0
   26.3861   16.3387    6.8302 C   0  0  2  0  0  0  0  0  0  0  0  0
   26.6780   15.3912    5.6153 C   0  0  1  0  0  0  0  0  0  0  0  0
   25.9401   14.1630    5.7951 C   0  0  1  0  0  0  0  0  0  0  0  0
   24.4626   14.4487    5.9861 O   0  0  0  0  0  0  0  0  0  0  0  0
   26.1725   13.1861    4.5603 C   0  0  0  0  0  0  0  0  0  0  0  0
   24.4052   17.3562    5.8834 N   0  0  0  0  0  0  0  0  0  0  0  0
   26.9932   18.2636   14.4300 O   0  0  0  0  0  0  0  0  0  0  0  0
   26.3065    6.9163   12.3512 C   0  0  0  0  0  0  0  0  0  0  0  0
   26.3121   15.9080    4.6579 O   0  0  0  0  0  0  0  0  0  0  0  0
   26.7598   15.7940    7.7719 O   0  0  0  0  0  0  0  0  0  0  0  0
   27.0922    8.6373   10.9295 C   0  0  0  0  0  0  0  0  0  0  0  0
   25.1058    6.6594   11.7280 C   0  0  0  0  0  0  0  0  0  0  0  0
   27.2300    7.1001   11.4086 C   0  0  1  0  0  0  0  0  0  0  0  0
   26.8604   19.4937   12.0699 F   0  0  0  0  0  0  0  0  0  0  0  0
  1  2  1  1  0  0  0
  1 10  1  0  0  0  0
  1  3  1  0  0  0  0
  3  4  1  1  0  0  0
  3  6  1  0  0  0  0
  5 46  2  0  0  0  0
  6 42  1  1  0  0  0
  6  8  1  0  0  0  0
  7 47  1  0  0  0  0
  8  9  1  0  0  0  0
  8 49  1  6  0  0  0
  9 10  1  0  0  0  0
  9 11  1  6  0  0  0
 11 12  1  0  0  0  0
 13 14  1  1  0  0  0
 13 15  1  0  0  0  0
 13 21  1  0  0  0  0
 14 46  1  0  0  0  0
 15 16  1  0  0  0  0
 16 17  1  1  0  0  0
 16 18  1  0  0  0  0
 18  2  1  6  0  0  0
 18 19  1  0  0  0  0
 19 20  1  1  0  0  0
 19 21  1  0  0  0  0
 21 22  1  6  0  0  0
 23 20  1  1  0  0  0
 23 24  1  0  0  0  0
 23 28  1  0  0  0  0
 24 25  1  6  0  0  0
 24 26  1  0  0  0  0
 26 27  1  0  0  0  0
 26 32  1  6  0  0  0
 27 28  1  0  0  0  0
 27 29  1  1  0  0  0
 29 30  1  0  0  0  0
 31 32  1  6  0  0  0
 31 33  1  0  0  0  0
 31 39  1  0  0  0  0
 33 36  1  0  0  0  0
 33 41  1  6  0  0  0
 34 40  1  0  0  0  0
 35 48  1  0  0  0  0
 36 37  1  0  0  0  0
 36 45  1  1  0  0  0
 37 38  1  0  0  0  0
 37 44  1  6  0  0  0
 38 39  1  0  0  0  0
 38 40  1  6  0  0  0
 43 47  1  0  0  0  0
 46 48  1  0  0  0  0
 48 43  1  1  0  0  0
M  END
>  <CHROM.1>
-104.93579603,42.52034738,69.38272976,-165.80978084,105.76746252,164.49338368
-69.61060178,81.81825167,-97.48849882,175.46997024,-174.42693290,-158.03724247
104.76360037,25.44419024,14.11660328,10.14342016,-2.14074362,1.30394752,-2.80562430

>  <Name>
ligand

>  <RI>
0

>  <Rbt.Current_Directory>
/home/itssahil/PROJECTS/Mol_Feturizer/New_Systems/rnas/4PDQ

>  <Rbt.Executable>
rbdock ($Id: //depot/dev/client3/rdock/2013.1/src/exe/rbdock.cxx#4 $)

>  <Rbt.Library>
libRbt.so (2013.1, Build901 2013/11/27)

>  <Rbt.Parameter_File>
/export/apps/rDock/src/rDock_2013.1_src/data/scripts/dock_solv.prm

>  <Rbt.Receptor>
prm/blind_docking_100.prm

>  <SCORE>
20.2225

>  <SCORE.INTER>
1.13214

>  <SCORE.INTER.CONST>
1

>  <SCORE.INTER.POLAR>
0

>  <SCORE.INTER.ROT>
13

>  <SCORE.INTER.SOLV>
37.7744

>  <SCORE.INTER.VDW>
-24.1034

>  <SCORE.INTER.norm>
0.0231049

>  <SCORE.INTRA>
16.5406

>  <SCORE.INTRA.DIHEDRAL>
-9.39998

>  <SCORE.INTRA.DIHEDRAL.0>
34.5115

>  <SCORE.INTRA.POLAR>
0

>  <SCORE.INTRA.POLAR.0>
0

>  <SCORE.INTRA.REPUL>
0.0130246

>  <SCORE.INTRA.REPUL.0>
0

>  <SCORE.INTRA.SOLV>
7.20256

>  <SCORE.INTRA.SOLV.lig_0>
-122.812

>  <SCORE.INTRA.VDW>
17.5742

>  <SCORE.INTRA.VDW.0>
-7.46208

>  <SCORE.INTRA.norm>
0.337563

>  <SCORE.RESTR>
2.54978

>  <SCORE.RESTR.CAVITY>
2.54978

>  <SCORE.RESTR.norm>
0.0520363

>  <SCORE.SYSTEM>
0

>  <SCORE.SYSTEM.CONST>
0

>  <SCORE.SYSTEM.DIHEDRAL>
0

>  <SCORE.SYSTEM.SOLV>
0

>  <SCORE.SYSTEM.norm>
0

>  <SCORE.heavy>
49

>  <SCORE.norm>
0.412705

>  <RMSD>
11.794

$$$$
ligand
 OpenBabel11021811513D
libRbt.so/2013.1/901 2013/11/27
 49 52  0  0  0  0  0  0  0  0999 V2000
   26.8812    9.0938   11.0884 C   0  0  2  0  0  0  0  0  0  0  0  0
   26.6809    9.8692   12.2332 O   0  0  0  0  0  0  0  0  0  0  0  0
   25.5427    8.3614   10.7023 C   0  0  2  0  0  0  0  0  0  0  0  0
   24.4595    9.3999   10.4560 N   0  0  0  0  0  0  0  0  0  0  0  0
   25.8443   16.5323   12.5904 O   0  0  0  0  0  0  0  0  0  0  0  0
   25.1310    7.3695   11.8152 C   0  0  2  0  0  0  0  0  0  0  0  0
   28.2815   21.1208   13.0960 N   0  0  0  0  0  0  0  0  0  0  0  0
   26.2484    6.3433   12.0595 C   0  0  2  0  0  0  0  0  0  0  0  0
   27.6171    7.0459   12.4501 C   0  0  2  0  0  0  0  0  0  0  0  0
   27.9556    8.0535   11.3499 O   0  0  0  0  0  0  0  0  0  0  0  0
   28.7573    6.0042   12.6415 C   0  0  0  0  0  0  0  0  0  0  0  0
   29.1611    5.3686   11.4386 N   0  0  0  0  0  0  0  0  0  0  0  0
   26.6875   13.9619   13.6659 C   0  0  2  0  0  0  0  0  0  0  0  0
   27.2118   15.2681   14.1619 N   0  0  0  0  0  0  0  0  0  0  0  0
   27.4439   12.8097   14.4885 C   0  0  0  0  0  0  0  0  0  0  0  0
   26.9301   11.3899   14.0430 C   0  0  2  0  0  0  0  0  0  0  0  0
   27.6303   10.3245   14.7755 N   0  0  0  0  0  0  0  0  0  0  0  0
   27.1766   11.1817   12.5354 C   0  0  2  0  0  0  0  0  0  0  0  0
   26.4467   12.3055   11.6944 C   0  0  2  0  0  0  0  0  0  0  0  0
   26.7358   12.0146   10.2762 O   0  0  0  0  0  0  0  0  0  0  0  0
   27.0374   13.7438   12.1230 C   0  0  1  0  0  0  0  0  0  0  0  0
   26.3889   14.7174   11.3672 O   0  0  0  0  0  0  0  0  0  0  0  0
   26.5343   12.7923    9.2675 C   0  0  1  0  0  0  0  0  0  0  0  0
   26.4564   12.0913    7.8793 C   0  0  2  0  0  0  0  0  0  0  0  0
   27.7381   12.0656    7.3349 O   0  0  0  0  0  0  0  0  0  0  0  0
   25.5928   13.0648    7.1905 C   0  0  1  0  0  0  0  0  0  0  0  0
   24.5111   13.5558    8.2015 C   0  0  2  0  0  0  0  0  0  0  0  0
   25.3200   13.6073    9.3510 O   0  0  0  0  0  0  0  0  0  0  0  0
   23.1981   12.7766    8.2906 C   0  0  0  0  0  0  0  0  0  0  0  0
   22.3734   13.4916    9.1913 O   0  0  0  0  0  0  0  0  0  0  0  0
   25.9069   15.3204    6.2757 C   0  0  2  0  0  0  0  0  0  0  0  0
   26.4903   14.1689    6.7197 O   0  0  0  0  0  0  0  0  0  0  0  0
   26.9133   16.2856    5.7218 C   0  0  1  0  0  0  0  0  0  0  0  0
   22.4051   17.1207    8.6195 N   0  0  0  0  0  0  0  0  0  0  0  0
   28.5423   17.5001   14.8322 O   0  0  0  0  0  0  0  0  0  0  0  0
   26.1787   17.6092    5.2764 C   0  0  2  0  0  0  0  0  0  0  0  0
   25.3623   18.2937    6.4269 C   0  0  1  0  0  0  0  0  0  0  0  0
   24.3952   17.3500    6.9365 C   0  0  1  0  0  0  0  0  0  0  0  0
   25.0769   16.0667    7.3718 O   0  0  0  0  0  0  0  0  0  0  0  0
   23.5712   17.9891    8.1388 C   0  0  0  0  0  0  0  0  0  0  0  0
   27.8565   16.6218    6.7136 N   0  0  0  0  0  0  0  0  0  0  0  0
   24.1807    6.8219   11.4937 O   0  0  0  0  0  0  0  0  0  0  0  0
   27.5700   18.6713   13.1461 C   0  0  0  0  0  0  0  0  0  0  0  0
   26.0897   18.5723    7.2700 O   0  0  0  0  0  0  0  0  0  0  0  0
   25.4247   17.3398    4.4505 O   0  0  0  0  0  0  0  0  0  0  0  0
   26.6824   16.5067   13.5028 C   0  0  0  0  0  0  0  0  0  0  0  0
   28.0745   19.8402   13.6707 C   0  0  0  0  0  0  0  0  0  0  0  0
   27.3325   17.8345   14.1553 C   0  0  1  0  0  0  0  0  0  0  0  0
   26.4629    5.5827   10.8964 F   0  0  0  0  0  0  0  0  0  0  0  0
  1  2  1  1  0  0  0
  1 10  1  0  0  0  0
  1  3  1  0  0  0  0
  3  4  1  1  0  0  0
  3  6  1  0  0  0  0
  5 46  2  0  0  0  0
  6 42  1  6  0  0  0
  6  8  1  0  0  0  0
  7 47  1  0  0  0  0
  8  9  1  0  0  0  0
  8 49  1  6  0  0  0
  9 10  1  0  0  0  0
  9 11  1  6  0  0  0
 11 12  1  0  0  0  0
 13 14  1  1  0  0  0
 13 15  1  0  0  0  0
 13 21  1  0  0  0  0
 14 46  1  0  0  0  0
 15 16  1  0  0  0  0
 16 17  1  1  0  0  0
 16 18  1  0  0  0  0
 18  2  1  6  0  0  0
 18 19  1  0  0  0  0
 19 20  1  6  0  0  0
 19 21  1  0  0  0  0
 21 22  1  6  0  0  0
 23 20  1  1  0  0  0
 23 24  1  0  0  0  0
 23 28  1  0  0  0  0
 24 25  1  6  0  0  0
 24 26  1  0  0  0  0
 26 27  1  0  0  0  0
 26 32  1  1  0  0  0
 27 28  1  0  0  0  0
 27 29  1  1  0  0  0
 29 30  1  0  0  0  0
 31 32  1  1  0  0  0
 31 33  1  0  0  0  0
 31 39  1  0  0  0  0
 33 36  1  0  0  0  0
 33 41  1  1  0  0  0
 34 40  1  0  0  0  0
 35 48  1  0  0  0  0
 36 37  1  0  0  0  0
 36 45  1  6  0  0  0
 37 38  1  0  0  0  0
 37 44  1  1  0  0  0
 38 39  1  0  0  0  0
 38 40  1  1  0  0  0
 43 47  1  0  0  0  0
 46 48  1  0  0  0  0
 48 43  1  6  0  0  0
M  END
>  <CHROM.1>
-139.82723088,-166.65099184,68.69988283,177.96796012,-167.23324295,-159.57969537
-167.67385327,-175.45750081,-174.81164713,172.62705124,-167.70681933,-63.04986138
-160.78127201,26.28786911,13.25501154,10.37453890,1.31950164,1.25967631,3.08729693

>  <Name>
ligand

>  <RI>
0

>  <Rbt.Current_Directory>
/home/itssahil/PROJECTS/Mol_Feturizer/New_Systems/rnas/4PDQ

>  <Rbt.Executable>
rbdock ($Id: //depot/dev/client3/rdock/2013.1/src/exe/rbdock.cxx#4 $)

>  <Rbt.Library>
libRbt.so (2013.1, Build901 2013/11/27)

>  <Rbt.Parameter_File>
/export/apps/rDock/src/rDock_2013.1_src/data/scripts/dock_solv.prm

>  <Rbt.Receptor>
prm/blind_docking_60.prm

>  <SCORE>
3.12625

>  <SCORE.INTER>
2.20056

>  <SCORE.INTER.CONST>
1

>  <SCORE.INTER.POLAR>
0

>  <SCORE.INTER.ROT>
13

>  <SCORE.INTER.SOLV>
30.5608

>  <SCORE.INTER.VDW>
-20.9866

>  <SCORE.INTER.norm>
0.0449093

>  <SCORE.INTRA>
-3.62744

>  <SCORE.INTRA.DIHEDRAL>
-21.4706

>  <SCORE.INTRA.DIHEDRAL.0>
34.5115

>  <SCORE.INTRA.POLAR>
0

>  <SCORE.INTRA.POLAR.0>
0

>  <SCORE.INTRA.REPUL>
0.00123848

>  <SCORE.INTRA.REPUL.0>
0

>  <SCORE.INTRA.SOLV>
0.139489

>  <SCORE.INTRA.SOLV.lig_0>
-122.812

>  <SCORE.INTRA.VDW>
7.03192

>  <SCORE.INTRA.VDW.0>
-7.46208

>  <SCORE.INTRA.norm>
-0.0740294

>  <SCORE.RESTR>
4.55313

>  <SCORE.RESTR.CAVITY>
4.55313

>  <SCORE.RESTR.norm>
0.0929211

>  <SCORE.SYSTEM>
0

>  <SCORE.SYSTEM.CONST>
0

>  <SCORE.SYSTEM.DIHEDRAL>
0

>  <SCORE.SYSTEM.SOLV>
0

>  <SCORE.SYSTEM.norm>
0

>  <SCORE.heavy>
49

>  <SCORE.norm>
0.063801

>  <RMSD>
11.802

$$$$
ligand
 OpenBabel11021811513D
libRbt.so/2013.1/901 2013/11/27
 49 52  0  0  0  0  0  0  0  0999 V2000
   26.2256   12.4795   12.9897 C   0  0  2  0  0  0  0  0  0  0  0  0
   26.8946   13.5702   12.4287 O   0  0  0  0  0  0  0  0  0  0  0  0
   27.1041   11.8487   14.1332 C   0  0  2  0  0  0  0  0  0  0  0  0
   27.3767   12.9051   15.1925 N   0  0  0  0  0  0  0  0  0  0  0  0
   25.2665   17.9186    9.0261 O   0  0  0  0  0  0  0  0  0  0  0  0
   28.4195   11.2809   13.5509 C   0  0  2  0  0  0  0  0  0  0  0  0
   27.0798   22.4366    8.9294 N   0  0  0  0  0  0  0  0  0  0  0  0
   28.1185   10.2310   12.4698 C   0  0  2  0  0  0  0  0  0  0  0  0
   27.2312   10.8309   11.2983 C   0  0  2  0  0  0  0  0  0  0  0  0
   25.9698   11.4268   11.9261 O   0  0  0  0  0  0  0  0  0  0  0  0
   26.8840    9.7482   10.2358 C   0  0  0  0  0  0  0  0  0  0  0  0
   27.9986    8.9742    9.8204 N   0  0  0  0  0  0  0  0  0  0  0  0
   24.9358   17.3984   11.8712 C   0  0  2  0  0  0  0  0  0  0  0  0
   24.5284   18.6782   11.2207 N   0  0  0  0  0  0  0  0  0  0  0  0
   26.5239   17.2610   11.6832 C   0  0  0  0  0  0  0  0  0  0  0  0
   27.0451   15.9416   12.3656 C   0  0  2  0  0  0  0  0  0  0  0  0
   28.4966   15.7940   12.1828 N   0  0  0  0  0  0  0  0  0  0  0  0
   26.3529   14.7109   11.7466 C   0  0  2  0  0  0  0  0  0  0  0  0
   24.7831   14.8169   11.9114 C   0  0  2  0  0  0  0  0  0  0  0  0
   24.2192   13.5979   11.2987 O   0  0  0  0  0  0  0  0  0  0  0  0
   24.2671   16.1409   11.1484 C   0  0  1  0  0  0  0  0  0  0  0  0
   22.8843   16.2120   11.2982 O   0  0  0  0  0  0  0  0  0  0  0  0
   24.2216   13.2856   10.0476 C   0  0  1  0  0  0  0  0  0  0  0  0
   23.4058   12.0150    9.6672 C   0  0  2  0  0  0  0  0  0  0  0  0
   24.2613   10.9175    9.7263 O   0  0  0  0  0  0  0  0  0  0  0  0
   23.0771   12.3736    8.2775 C   0  0  1  0  0  0  0  0  0  0  0  0
   22.7600   13.9003    8.2314 C   0  0  2  0  0  0  0  0  0  0  0  0
   23.7327   14.3347    9.1499 O   0  0  0  0  0  0  0  0  0  0  0  0
   21.3153   14.3458    8.4621 C   0  0  0  0  0  0  0  0  0  0  0  0
   21.0473   14.1266    9.8343 O   0  0  0  0  0  0  0  0  0  0  0  0
   25.0827   13.0118    7.0150 C   0  0  2  0  0  0  0  0  0  0  0  0
   24.2714   12.0041    7.4507 O   0  0  0  0  0  0  0  0  0  0  0  0
   25.0685   13.1413    5.5203 C   0  0  1  0  0  0  0  0  0  0  0  0
   29.8199   14.9619    7.7693 N   0  0  0  0  0  0  0  0  0  0  0  0
   22.8970   20.4303    9.5375 O   0  0  0  0  0  0  0  0  0  0  0  0
   26.0632   14.2863    5.0849 C   0  0  2  0  0  0  0  0  0  0  0  0
   27.5328   14.0677    5.5861 C   0  0  1  0  0  0  0  0  0  0  0  0
   27.5218   13.9560    7.0259 C   0  0  1  0  0  0  0  0  0  0  0  0
   26.5715   12.8606    7.4710 O   0  0  0  0  0  0  0  0  0  0  0  0
   28.9910   13.6888    7.5764 C   0  0  0  0  0  0  0  0  0  0  0  0
   25.5008   11.9380    4.9274 N   0  0  0  0  0  0  0  0  0  0  0  0
   29.0199   10.7933   14.3924 O   0  0  0  0  0  0  0  0  0  0  0  0
   25.0411   21.1469    9.7594 C   0  0  0  0  0  0  0  0  0  0  0  0
   27.9245   13.0853    5.1400 O   0  0  0  0  0  0  0  0  0  0  0  0
   25.6984   15.2734    5.5494 O   0  0  0  0  0  0  0  0  0  0  0  0
   24.7677   18.7962    9.7450 C   0  0  0  0  0  0  0  0  0  0  0  0
   26.0462   21.4663    8.8740 C   0  0  0  0  0  0  0  0  0  0  0  0
   24.2645   20.2272    9.1880 C   0  0  1  0  0  0  0  0  0  0  0  0
   27.4233    9.1473   13.0350 F   0  0  0  0  0  0  0  0  0  0  0  0
  1  2  1  6  0  0  0
  1 10  1  0  0  0  0
  1  3  1  0  0  0  0
  3  4  1  1  0  0  0
  3  6  1  0  0  0  0
  5 46  2  0  0  0  0
  6 42  1  1  0  0  0
  6  8  1  0  0  0  0
  7 47  1  0  0  0  0
  8  9  1  0  0  0  0
  8 49  1  1  0  0  0
  9 10  1  0  0  0  0
  9 11  1  6  0  0  0
 11 12  1  0  0  0  0
 13 14  1  6  0  0  0
 13 15  1  0  0  0  0
 13 21  1  0  0  0  0
 14 46  1  0  0  0  0
 15 16  1  0  0  0  0
 16 17  1  6  0  0  0
 16 18  1  0  0  0  0
 18  2  1  1  0  0  0
 18 19  1  0  0  0  0
 19 20  1  6  0  0  0
 19 21  1  0  0  0  0
 21 22  1  1  0  0  0
 23 20  1  1  0  0  0
 23 24  1  0  0  0  0
 23 28  1  0  0  0  0
 24 25  1  6  0  0  0
 24 26  1  0  0  0  0
 26 27  1  0  0  0  0
 26 32  1  6  0  0  0
 27 28  1  0  0  0  0
 27 29  1  1  0  0  0
 29 30  1  0  0  0  0
 31 32  1  6  0  0  0
 31 33  1  0  0  0  0
 31 39  1  0  0  0  0
 33 36  1  0  0  0  0
 33 41  1  6  0  0  0
 34 40  1  0  0  0  0
 35 48  1  0  0  0  0
 36 37  1  0  0  0  0
 36 45  1  1  0  0  0
 37 38  1  0  0  0  0
 37 44  1  6  0  0  0
 38 39  1  0  0  0  0
 38 40  1  6  0  0  0
 43 47  1  0  0  0  0
 46 48  1  0  0  0  0
 48 43  1  1  0  0  0
M  END
>  <CHROM.1>
-154.92301740,132.48464772,-47.33808440,62.10584491,-67.93400797,-173.05125514
-104.76619883,71.09975180,-114.90586837,84.33929645,175.13473059,-143.50091355
124.24230362,25.74249320,14.31635880,9.86195467,-0.45383454,-1.28781783,0.81214266

>  <Name>
ligand

>  <RI>
0

>  <Rbt.Current_Directory>
/home/itssahil/PROJECTS/Mol_Feturizer/New_Systems/rnas/4PDQ

>  <Rbt.Executable>
rbdock ($Id: //depot/dev/client3/rdock/2013.1/src/exe/rbdock.cxx#4 $)

>  <Rbt.Library>
libRbt.so (2013.1, Build901 2013/11/27)

>  <Rbt.Parameter_File>
/export/apps/rDock/src/rDock_2013.1_src/data/scripts/dock_solv.prm

>  <Rbt.Receptor>
prm/blind_docking_40.prm

>  <SCORE>
0.155513

>  <SCORE.INTER>
-1.85965

>  <SCORE.INTER.CONST>
1

>  <SCORE.INTER.POLAR>
0

>  <SCORE.INTER.ROT>
13

>  <SCORE.INTER.SOLV>
40.466

>  <SCORE.INTER.VDW>
-26.9951

>  <SCORE.INTER.norm>
-0.037952

>  <SCORE.INTRA>
-0.30207

>  <SCORE.INTRA.DIHEDRAL>
-4.45737

>  <SCORE.INTRA.DIHEDRAL.0>
34.5115

>  <SCORE.INTRA.POLAR>
0

>  <SCORE.INTRA.POLAR.0>
0

>  <SCORE.INTRA.REPUL>
0.0119443

>  <SCORE.INTRA.REPUL.0>
0

>  <SCORE.INTRA.SOLV>
-1.40352

>  <SCORE.INTRA.SOLV.lig_0>
-122.812

>  <SCORE.INTRA.VDW>
2.56865

>  <SCORE.INTRA.VDW.0>
-7.46208

>  <SCORE.INTRA.norm>
-0.00616469

>  <SCORE.RESTR>
2.31723

>  <SCORE.RESTR.CAVITY>
2.31723

>  <SCORE.RESTR.norm>
0.0472904

>  <SCORE.SYSTEM>
0

>  <SCORE.SYSTEM.CONST>
0

>  <SCORE.SYSTEM.DIHEDRAL>
0

>  <SCORE.SYSTEM.SOLV>
0

>  <SCORE.SYSTEM.norm>
0

>  <SCORE.heavy>
49

>  <SCORE.norm>
0.00317373

>  <RMSD>
11.812

$$$$
ligand
 OpenBabel11021811513D
libRbt.so/2013.1/901 2013/11/27
 49 52  0  0  0  0  0  0  0  0999 V2000
   25.7208   12.4483   12.8665 C   0  0  2  0  0  0  0  0  0  0  0  0
   26.3990   13.6696   12.8461 O   0  0  0  0  0  0  0  0  0  0  0  0
   26.2662   11.5579   14.0442 C   0  0  2  0  0  0  0  0  0  0  0  0
   26.0691   12.2955   15.3593 N   0  0  0  0  0  0  0  0  0  0  0  0
   26.6352   19.9878   12.2502 O   0  0  0  0  0  0  0  0  0  0  0  0
   27.7546   11.2085   13.8108 C   0  0  2  0  0  0  0  0  0  0  0  0
   23.8084   20.0823    7.5187 N   0  0  0  0  0  0  0  0  0  0  0  0
   27.9310   10.4822   12.4680 C   0  0  2  0  0  0  0  0  0  0  0  0
   27.3896   11.3502   11.2543 C   0  0  2  0  0  0  0  0  0  0  0  0
   25.9347   11.7159   11.5540 O   0  0  0  0  0  0  0  0  0  0  0  0
   27.5205   10.5860    9.9051 C   0  0  0  0  0  0  0  0  0  0  0  0
   28.4546    9.5182    9.9391 N   0  0  0  0  0  0  0  0  0  0  0  0
   25.0845   17.6105   11.6033 C   0  0  2  0  0  0  0  0  0  0  0  0
   25.0113   18.8749   10.8140 N   0  0  0  0  0  0  0  0  0  0  0  0
   26.6384   17.3204   11.8820 C   0  0  0  0  0  0  0  0  0  0  0  0
   26.8072   16.0087   12.7360 C   0  0  2  0  0  0  0  0  0  0  0  0
   28.2281   15.7210   12.9810 N   0  0  0  0  0  0  0  0  0  0  0  0
   26.1920   14.8056   11.9937 C   0  0  2  0  0  0  0  0  0  0  0  0
   24.6588   15.0613   11.6991 C   0  0  2  0  0  0  0  0  0  0  0  0
   24.1656   13.8588   10.9991 O   0  0  0  0  0  0  0  0  0  0  0  0
   24.5181   16.3718   10.7694 C   0  0  1  0  0  0  0  0  0  0  0  0
   23.1640   16.5751   10.5153 O   0  0  0  0  0  0  0  0  0  0  0  0
   24.3120   13.5728    9.7502 C   0  0  1  0  0  0  0  0  0  0  0  0
   23.6326   12.2547    9.2752 C   0  0  2  0  0  0  0  0  0  0  0  0
   24.5568   11.2207    9.4035 O   0  0  0  0  0  0  0  0  0  0  0  0
   23.4145   12.6167    7.8647 C   0  0  1  0  0  0  0  0  0  0  0  0
   22.9918   14.1172    7.8078 C   0  0  2  0  0  0  0  0  0  0  0  0
   23.8365   14.6020    8.8227 O   0  0  0  0  0  0  0  0  0  0  0  0
   21.5027   14.4530    7.9015 C   0  0  0  0  0  0  0  0  0  0  0  0
   21.0625   13.9563    9.1514 O   0  0  0  0  0  0  0  0  0  0  0  0
   25.5819   13.3890    7.0106 C   0  0  2  0  0  0  0  0  0  0  0  0
   24.7071   12.3509    7.1542 O   0  0  0  0  0  0  0  0  0  0  0  0
   26.0503   13.5402    5.5933 C   0  0  1  0  0  0  0  0  0  0  0  0
   29.9373   12.9633    8.4634 N   0  0  0  0  0  0  0  0  0  0  0  0
   26.7680   22.2134   10.5207 O   0  0  0  0  0  0  0  0  0  0  0  0
   27.0937   14.7210    5.5102 C   0  0  2  0  0  0  0  0  0  0  0  0
   28.3269   14.5394    6.4616 C   0  0  1  0  0  0  0  0  0  0  0  0
   27.8520   14.4061    7.8189 C   0  0  1  0  0  0  0  0  0  0  0  0
   26.8456   13.2760    7.9257 O   0  0  0  0  0  0  0  0  0  0  0  0
   29.0703   14.1751    8.8166 C   0  0  0  0  0  0  0  0  0  0  0  0
   26.6918   12.3594    5.1683 N   0  0  0  0  0  0  0  0  0  0  0  0
   28.1152   10.5293   14.6563 O   0  0  0  0  0  0  0  0  0  0  0  0
   25.6889   20.8421    9.0664 C   0  0  0  0  0  0  0  0  0  0  0  0
   28.8748   13.5760    6.1631 O   0  0  0  0  0  0  0  0  0  0  0  0
   26.5649   15.6896    5.8349 O   0  0  0  0  0  0  0  0  0  0  0  0
   25.8695   20.0146   11.2762 C   0  0  0  0  0  0  0  0  0  0  0  0
   24.3795   20.6745    8.6747 C   0  0  0  0  0  0  0  0  0  0  0  0
   25.6900   21.3025   10.3167 C   0  0  1  0  0  0  0  0  0  0  0  0
   27.2260    9.2656   12.4852 F   0  0  0  0  0  0  0  0  0  0  0  0
  1  2  1  6  0  0  0
  1 10  1  0  0  0  0
  1  3  1  0  0  0  0
  3  4  1  1  0  0  0
  3  6  1  0  0  0  0
  5 46  2  0  0  0  0
  6 42  1  1  0  0  0
  6  8  1  0  0  0  0
  7 47  1  0  0  0  0
  8  9  1  0  0  0  0
  8 49  1  1  0  0  0
  9 10  1  0  0  0  0
  9 11  1  6  0  0  0
 11 12  1  0  0  0  0
 13 14  1  6  0  0  0
 13 15  1  0  0  0  0
 13 21  1  0  0  0  0
 14 46  1  0  0  0  0
 15 16  1  0  0  0  0
 16 17  1  6  0  0  0
 16 18  1  0  0  0  0
 18  2  1  1  0  0  0
 18 19  1  0  0  0  0
 19 20  1  6  0  0  0
 19 21  1  0  0  0  0
 21 22  1  1  0  0  0
 23 20  1  1  0  0  0
 23 24  1  0  0  0  0
 23 28  1  0  0  0  0
 24 25  1  6  0  0  0
 24 26  1  0  0  0  0
 26 27  1  0  0  0  0
 26 32  1  6  0  0  0
 27 28  1  0  0  0  0
 27 29  1  1  0  0  0
 29 30  1  0  0  0  0
 31 32  1  6  0  0  0
 31 33  1  0  0  0  0
 31 39  1  0  0  0  0
 33 36  1  0  0  0  0
 33 41  1  1  0  0  0
 34 40  1  0  0  0  0
 35 48  1  0  0  0  0
 36 37  1  0  0  0  0
 36 45  1  1  0  0  0
 37 38  1  0  0  0  0
 37 44  1  6  0  0  0
 38 39  1  0  0  0  0
 38 40  1  1  0  0  0
 43 47  1  0  0  0  0
 46 48  1  0  0  0  0
 48 43  1  6  0  0  0
M  END
>  <CHROM.1>
-176.73516706,158.81781956,-19.59118392,-45.02498403,-79.89863492,-177.63563396
-94.09488282,60.39592408,-129.71468540,-56.61219994,-172.03951307,-144.91051450
15.93412610,25.93443584,14.52484697,9.98076029,-0.52472515,-1.34509890,0.83879621

>  <Name>
ligand

>  <RI>
0

>  <Rbt.Current_Directory>
/home/itssahil/PROJECTS/Mol_Feturizer/New_Systems/rnas/4PDQ

>  <Rbt.Executable>
rbdock ($Id: //depot/dev/client3/rdock/2013.1/src/exe/rbdock.cxx#4 $)

>  <Rbt.Library>
libRbt.so (2013.1, Build901 2013/11/27)

>  <Rbt.Parameter_File>
/export/apps/rDock/src/rDock_2013.1_src/data/scripts/dock_solv.prm

>  <Rbt.Receptor>
prm/blind_docking_40.prm

>  <SCORE>
0.599544

>  <SCORE.INTER>
-1.3764

>  <SCORE.INTER.CONST>
1

>  <SCORE.INTER.POLAR>
0

>  <SCORE.INTER.ROT>
13

>  <SCORE.INTER.SOLV>
32.7571

>  <SCORE.INTER.VDW>
-24.1033

>  <SCORE.INTER.norm>
-0.0280897

>  <SCORE.INTRA>
0.760418

>  <SCORE.INTRA.DIHEDRAL>
-10.726

>  <SCORE.INTRA.DIHEDRAL.0>
34.5115

>  <SCORE.INTRA.POLAR>
0

>  <SCORE.INTRA.POLAR.0>
0

>  <SCORE.INTRA.REPUL>
0

>  <SCORE.INTRA.REPUL.0>
0

>  <SCORE.INTRA.SOLV>
2.25457

>  <SCORE.INTRA.SOLV.lig_0>
-122.812

>  <SCORE.INTRA.VDW>
4.99614

>  <SCORE.INTRA.VDW.0>
-7.46208

>  <SCORE.INTRA.norm>
0.0155187

>  <SCORE.RESTR>
1.21552

>  <SCORE.RESTR.CAVITY>
1.21552

>  <SCORE.RESTR.norm>
0.0248066

>  <SCORE.SYSTEM>
0

>  <SCORE.SYSTEM.CONST>
0

>  <SCORE.SYSTEM.DIHEDRAL>
0

>  <SCORE.SYSTEM.SOLV>
0

>  <SCORE.SYSTEM.norm>
0

>  <SCORE.heavy>
49

>  <SCORE.norm>
0.0122356

>  <RMSD>
11.812

$$$$
ligand
 OpenBabel11021811513D
libRbt.so/2013.1/901 2013/11/27
 49 52  0  0  0  0  0  0  0  0999 V2000
   27.5296   10.2429   11.0626 C   0  0  2  0  0  0  0  0  0  0  0  0
   26.6553   11.2849   11.3816 O   0  0  0  0  0  0  0  0  0  0  0  0
   26.7202    8.9037   10.8936 C   0  0  2  0  0  0  0  0  0  0  0  0
   25.6852    9.0823    9.7939 N   0  0  0  0  0  0  0  0  0  0  0  0
   28.6605   16.4544   12.9674 O   0  0  0  0  0  0  0  0  0  0  0  0
   26.0579    8.5019   12.2321 C   0  0  2  0  0  0  0  0  0  0  0  0
   25.8170   18.7342   11.3841 N   0  0  0  0  0  0  0  0  0  0  0  0
   27.1205    8.3470   13.3313 C   0  0  2  0  0  0  0  0  0  0  0  0
   27.9601    9.6794   13.5298 C   0  0  2  0  0  0  0  0  0  0  0  0
   28.5503   10.0661   12.1724 O   0  0  0  0  0  0  0  0  0  0  0  0
   29.0703    9.4977   14.6049 C   0  0  0  0  0  0  0  0  0  0  0  0
   29.7313   10.7035   14.9561 N   0  0  0  0  0  0  0  0  0  0  0  0
   25.9827   15.4300   12.4628 C   0  0  2  0  0  0  0  0  0  0  0  0
   26.2475   16.7910   13.0146 N   0  0  0  0  0  0  0  0  0  0  0  0
   26.4829   14.3724   13.5617 C   0  0  0  0  0  0  0  0  0  0  0  0
   26.2170   12.9012   13.0684 C   0  0  2  0  0  0  0  0  0  0  0  0
   26.6896   11.9221   14.0583 N   0  0  0  0  0  0  0  0  0  0  0  0
   26.9568   12.6413   11.7410 C   0  0  2  0  0  0  0  0  0  0  0  0
   26.4891   13.6715   10.6352 C   0  0  2  0  0  0  0  0  0  0  0  0
   27.2437   13.3362    9.4114 O   0  0  0  0  0  0  0  0  0  0  0  0
   26.8321   15.1657   11.1364 C   0  0  1  0  0  0  0  0  0  0  0  0
   26.4207   16.0558   10.1475 O   0  0  0  0  0  0  0  0  0  0  0  0
   27.2539   13.9925    8.3014 C   0  0  1  0  0  0  0  0  0  0  0  0
   28.3655   13.5889    7.2885 C   0  0  2  0  0  0  0  0  0  0  0  0
   29.4802   14.3890    7.5277 O   0  0  0  0  0  0  0  0  0  0  0  0
   27.6780   13.9727    6.0443 C   0  0  1  0  0  0  0  0  0  0  0  0
   26.1714   13.5930    6.1845 C   0  0  2  0  0  0  0  0  0  0  0  0
   26.0044   13.9328    7.5391 O   0  0  0  0  0  0  0  0  0  0  0  0
   25.7339   12.1957    5.7429 C   0  0  0  0  0  0  0  0  0  0  0  0
   24.3420   12.2749    5.4995 O   0  0  0  0  0  0  0  0  0  0  0  0
   26.7932   16.2572    5.8971 C   0  0  2  0  0  0  0  0  0  0  0  0
   27.8917   15.4469    5.8794 O   0  0  0  0  0  0  0  0  0  0  0  0
   27.1203   17.6603    5.4783 C   0  0  1  0  0  0  0  0  0  0  0  0
   23.9642   18.5419    9.4362 N   0  0  0  0  0  0  0  0  0  0  0  0
   29.0021   18.7968   14.5765 O   0  0  0  0  0  0  0  0  0  0  0  0
   25.8206   18.5504    5.5709 C   0  0  2  0  0  0  0  0  0  0  0  0
   25.1642   18.5595    6.9950 C   0  0  1  0  0  0  0  0  0  0  0  0
   24.8499   17.2012    7.3714 C   0  0  1  0  0  0  0  0  0  0  0  0
   26.0845   16.3235    7.2902 O   0  0  0  0  0  0  0  0  0  0  0  0
   24.2201   17.1581    8.8324 C   0  0  0  0  0  0  0  0  0  0  0  0
   28.0884   18.2090    6.3432 N   0  0  0  0  0  0  0  0  0  0  0  0
   25.5113    7.5077   12.0940 O   0  0  0  0  0  0  0  0  0  0  0  0
   27.8313   19.4874   12.7566 C   0  0  0  0  0  0  0  0  0  0  0  0
   25.9254   18.9854    7.7411 O   0  0  0  0  0  0  0  0  0  0  0  0
   25.0375   18.1171    4.8483 O   0  0  0  0  0  0  0  0  0  0  0  0
   27.6829   17.1720   13.2227 C   0  0  0  0  0  0  0  0  0  0  0  0
   26.5516   19.5782   12.2564 C   0  0  0  0  0  0  0  0  0  0  0  0
   27.8059   18.6723   13.8103 C   0  0  1  0  0  0  0  0  0  0  0  0
   28.0123    7.3137   12.9931 F   0  0  0  0  0  0  0  0  0  0  0  0
  1  2  1  1  0  0  0
  1 10  1  0  0  0  0
  1  3  1  0  0  0  0
  3  4  1  6  0  0  0
  3  6  1  0  0  0  0
  5 46  2  0  0  0  0
  6 42  1  6  0  0  0
  6  8  1  0  0  0  0
  7 47  1  0  0  0  0
  8  9  1  0  0  0  0
  8 49  1  6  0  0  0
  9 10  1  0  0  0  0
  9 11  1  1  0  0  0
 11 12  1  0  0  0  0
 13 14  1  1  0  0  0
 13 15  1  0  0  0  0
 13 21  1  0  0  0  0
 14 46  1  0  0  0  0
 15 16  1  0  0  0  0
 16 17  1  1  0  0  0
 16 18  1  0  0  0  0
 18  2  1  6  0  0  0
 18 19  1  0  0  0  0
 19 20  1  6  0  0  0
 19 21  1  0  0  0  0
 21 22  1  6  0  0  0
 23 20  1  1  0  0  0
 23 24  1  0  0  0  0
 23 28  1  0  0  0  0
 24 25  1  1  0  0  0
 24 26  1  0  0  0  0
 26 27  1  0  0  0  0
 26 32  1  1  0  0  0
 27 28  1  0  0  0  0
 27 29  1  1  0  0  0
 29 30  1  0  0  0  0
 31 32  1  1  0  0  0
 31 33  1  0  0  0  0
 31 39  1  0  0  0  0
 33 36  1  0  0  0  0
 33 41  1  1  0  0  0
 34 40  1  0  0  0  0
 35 48  1  0  0  0  0
 36 37  1  0  0  0  0
 36 45  1  6  0  0  0
 37 38  1  0  0  0  0
 37 44  1  1  0  0  0
 38 39  1  0  0  0  0
 38 40  1  1  0  0  0
 43 47  1  0  0  0  0
 46 48  1  0  0  0  0
 48 43  1  6  0  0  0
M  END
>  <CHROM.1>
173.80037618,-127.04686396,-171.81285099,65.14900064,-173.76086368,167.31384850
-117.17534823,-158.74612979,-169.69671238,5.75533537,-82.41057568,-165.11812453
-28.55112458,26.81846381,14.27320424,10.09283466,0.90078025,1.37612288,-3.03650899

>  <Name>
ligand

>  <RI>
0

>  <Rbt.Current_Directory>
/home/itssahil/PROJECTS/Mol_Feturizer/New_Systems/rnas/4PDQ

>  <Rbt.Executable>
rbdock ($Id: //depot/dev/client3/rdock/2013.1/src/exe/rbdock.cxx#4 $)

>  <Rbt.Library>
libRbt.so (2013.1, Build901 2013/11/27)

>  <Rbt.Parameter_File>
/export/apps/rDock/src/rDock_2013.1_src/data/scripts/dock_solv.prm

>  <Rbt.Receptor>
prm/blind_docking_80.prm

>  <SCORE>
15.1417

>  <SCORE.INTER>
0.0579358

>  <SCORE.INTER.CONST>
1

>  <SCORE.INTER.POLAR>
0

>  <SCORE.INTER.ROT>
13

>  <SCORE.INTER.SOLV>
35.7669

>  <SCORE.INTER.VDW>
-24.1503

>  <SCORE.INTER.norm>
0.00118236

>  <SCORE.INTRA>
11.5918

>  <SCORE.INTRA.DIHEDRAL>
-7.8538

>  <SCORE.INTRA.DIHEDRAL.0>
34.5115

>  <SCORE.INTRA.POLAR>
0

>  <SCORE.INTRA.POLAR.0>
0

>  <SCORE.INTRA.REPUL>
0.78591

>  <SCORE.INTRA.REPUL.0>
0

>  <SCORE.INTRA.SOLV>
11.7021

>  <SCORE.INTRA.SOLV.lig_0>
-122.812

>  <SCORE.INTRA.VDW>
5.73807

>  <SCORE.INTRA.VDW.0>
-7.46208

>  <SCORE.INTRA.norm>
0.236567

>  <SCORE.RESTR>
3.49195

>  <SCORE.RESTR.CAVITY>
3.49195

>  <SCORE.RESTR.norm>
0.0712643

>  <SCORE.SYSTEM>
0

>  <SCORE.SYSTEM.CONST>
0

>  <SCORE.SYSTEM.DIHEDRAL>
0

>  <SCORE.SYSTEM.SOLV>
0

>  <SCORE.SYSTEM.norm>
0

>  <SCORE.heavy>
49

>  <SCORE.norm>
0.309013

>  <RMSD>
11.814

$$$$
ligand
 OpenBabel11021811513D
libRbt.so/2013.1/901 2013/11/27
 49 52  0  0  0  0  0  0  0  0999 V2000
   25.5317   12.4967   12.5761 C   0  0  2  0  0  0  0  0  0  0  0  0
   26.2757   13.6792   12.5757 O   0  0  0  0  0  0  0  0  0  0  0  0
   25.9381   11.6142   13.8144 C   0  0  2  0  0  0  0  0  0  0  0  0
   25.6848   12.4002   15.0913 N   0  0  0  0  0  0  0  0  0  0  0  0
   25.7530   18.3056    9.1558 O   0  0  0  0  0  0  0  0  0  0  0  0
   27.4182   11.1796   13.7035 C   0  0  2  0  0  0  0  0  0  0  0  0
   21.5031   20.1080    9.0720 N   0  0  0  0  0  0  0  0  0  0  0  0
   27.6536   10.4052   12.3972 C   0  0  2  0  0  0  0  0  0  0  0  0
   27.2525   11.2640   11.1239 C   0  0  2  0  0  0  0  0  0  0  0  0
   25.8017   11.7152   11.3029 O   0  0  0  0  0  0  0  0  0  0  0  0
   27.4409   10.4539    9.8087 C   0  0  0  0  0  0  0  0  0  0  0  0
   28.5187    9.5318    9.8526 N   0  0  0  0  0  0  0  0  0  0  0  0
   24.8222   17.6990   11.8466 C   0  0  2  0  0  0  0  0  0  0  0  0
   24.7011   19.0499   11.2241 N   0  0  0  0  0  0  0  0  0  0  0  0
   26.3870   17.4286   12.0806 C   0  0  0  0  0  0  0  0  0  0  0  0
   26.6057   16.0259   12.7610 C   0  0  2  0  0  0  0  0  0  0  0  0
   28.0372   15.7576   12.9624 N   0  0  0  0  0  0  0  0  0  0  0  0
   26.0246   14.9062   11.8747 C   0  0  2  0  0  0  0  0  0  0  0  0
   24.4815   15.1453   11.6206 C   0  0  2  0  0  0  0  0  0  0  0  0
   24.0227   14.0250   10.7757 O   0  0  0  0  0  0  0  0  0  0  0  0
   24.2904   16.5572   10.8648 C   0  0  1  0  0  0  0  0  0  0  0  0
   22.9283   16.7453   10.6434 O   0  0  0  0  0  0  0  0  0  0  0  0
   24.3007   13.8257    9.5324 C   0  0  1  0  0  0  0  0  0  0  0  0
   23.1264   13.3040    8.6530 C   0  0  2  0  0  0  0  0  0  0  0  0
   23.1613   11.9117    8.6660 O   0  0  0  0  0  0  0  0  0  0  0  0
   23.5657   13.8465    7.3566 C   0  0  1  0  0  0  0  0  0  0  0  0
   24.1686   15.2641    7.6021 C   0  0  2  0  0  0  0  0  0  0  0  0
   24.8173   14.9976    8.8213 O   0  0  0  0  0  0  0  0  0  0  0  0
   23.2287   16.4692    7.5456 C   0  0  0  0  0  0  0  0  0  0  0  0
   22.0652   16.0981    8.2606 O   0  0  0  0  0  0  0  0  0  0  0  0
   25.7159   13.3815    6.2684 C   0  0  2  0  0  0  0  0  0  0  0  0
   24.5687   12.8766    6.8092 O   0  0  0  0  0  0  0  0  0  0  0  0
   26.4507   12.3609    5.4502 C   0  0  1  0  0  0  0  0  0  0  0  0
   28.9797   14.1781    9.1900 N   0  0  0  0  0  0  0  0  0  0  0  0
   26.1556   21.1271    8.5392 O   0  0  0  0  0  0  0  0  0  0  0  0
   27.7870   12.9948    4.9002 C   0  0  2  0  0  0  0  0  0  0  0  0
   28.7275   13.5537    6.0235 C   0  0  1  0  0  0  0  0  0  0  0  0
   28.0023   14.5396    6.7900 C   0  0  1  0  0  0  0  0  0  0  0  0
   26.7113   13.9544    7.3305 O   0  0  0  0  0  0  0  0  0  0  0  0
   28.9065   15.1036    7.9721 C   0  0  0  0  0  0  0  0  0  0  0  0
   26.7904   11.2528    6.2522 N   0  0  0  0  0  0  0  0  0  0  0  0
   27.6771   10.5078   14.5912 O   0  0  0  0  0  0  0  0  0  0  0  0
   23.9269   20.6883    8.5272 C   0  0  0  0  0  0  0  0  0  0  0  0
   29.0193   12.6857    6.7156 O   0  0  0  0  0  0  0  0  0  0  0  0
   27.5102   13.8854    4.2268 O   0  0  0  0  0  0  0  0  0  0  0  0
   25.2321   19.2053    9.8302 C   0  0  0  0  0  0  0  0  0  0  0  0
   22.8344   20.5138    9.3470 C   0  0  0  0  0  0  0  0  0  0  0  0
   25.0174   20.7140    9.2923 C   0  0  1  0  0  0  0  0  0  0  0  0
   26.8833    9.2288   12.3923 F   0  0  0  0  0  0  0  0  0  0  0  0
  1  2  1  6  0  0  0
  1 10  1  0  0  0  0
  1  3  1  0  0  0  0
  3  4  1  1  0  0  0
  3  6  1  0  0  0  0
  5 46  2  0  0  0  0
  6 42  1  1  0  0  0
  6  8  1  0  0  0  0
  7 47  1  0  0  0  0
  8  9  1  0  0  0  0
  8 49  1  1  0  0  0
  9 10  1  0  0  0  0
  9 11  1  6  0  0  0
 11 12  1  0  0  0  0
 13 14  1  6  0  0  0
 13 15  1  0  0  0  0
 13 21  1  0  0  0  0
 14 46  1  0  0  0  0
 15 16  1  0  0  0  0
 16 17  1  6  0  0  0
 16 18  1  0  0  0  0
 18  2  1  1  0  0  0
 18 19  1  0  0  0  0
 19 20  1  6  0  0  0
 19 21  1  0  0  0  0
 21 22  1  1  0  0  0
 23 20  1  1  0  0  0
 23 24  1  0  0  0  0
 23 28  1  0  0  0  0
 24 25  1  6  0  0  0
 24 26  1  0  0  0  0
 26 27  1  0  0  0  0
 26 32  1  1  0  0  0
 27 28  1  0  0  0  0
 27 29  1  1  0  0  0
 29 30  1  0  0  0  0
 31 32  1  1  0  0  0
 31 33  1  0  0  0  0
 31 39  1  0  0  0  0
 33 36  1  0  0  0  0
 33 41  1  1  0  0  0
 34 40  1  0  0  0  0
 35 48  1  0  0  0  0
 36 37  1  0  0  0  0
 36 45  1  6  0  0  0
 37 38  1  0  0  0  0
 37 44  1  1  0  0  0
 38 39  1  0  0  0  0
 38 40  1  1  0  0  0
 43 47  1  0  0  0  0
 46 48  1  0  0  0  0
 48 43  1  6  0  0  0
M  END
>  <CHROM.1>
-162.30240630,149.38506826,-32.74750440,67.62010631,-71.15254701,-139.95607850
-135.39141426,43.96274927,-165.04270313,-79.50373534,-162.98134066,-169.67624630
-39.97882216,25.75846642,14.55006980,9.67124339,0.42343043,-1.18034767,1.78721616

>  <Name>
ligand

>  <RI>
0

>  <Rbt.Current_Directory>
/home/itssahil/PROJECTS/Mol_Feturizer/New_Systems/rnas/4PDQ

>  <Rbt.Executable>
rbdock ($Id: //depot/dev/client3/rdock/2013.1/src/exe/rbdock.cxx#4 $)

>  <Rbt.Library>
libRbt.so (2013.1, Build901 2013/11/27)

>  <Rbt.Parameter_File>
/export/apps/rDock/src/rDock_2013.1_src/data/scripts/dock_solv.prm

>  <Rbt.Receptor>
prm/blind_docking_40.prm

>  <SCORE>
2.61471

>  <SCORE.INTER>
-1.11646

>  <SCORE.INTER.CONST>
1

>  <SCORE.INTER.POLAR>
0

>  <SCORE.INTER.ROT>
13

>  <SCORE.INTER.SOLV>
28.8673

>  <SCORE.INTER.VDW>
-22.6334

>  <SCORE.INTER.norm>
-0.0227849

>  <SCORE.INTRA>
1.81894

>  <SCORE.INTRA.DIHEDRAL>
-8.298

>  <SCORE.INTRA.DIHEDRAL.0>
34.5115

>  <SCORE.INTRA.POLAR>
0

>  <SCORE.INTRA.POLAR.0>
0

>  <SCORE.INTRA.REPUL>
0.229997

>  <SCORE.INTRA.REPUL.0>
0

>  <SCORE.INTRA.SOLV>
3.79683

>  <SCORE.INTRA.SOLV.lig_0>
-122.812

>  <SCORE.INTRA.VDW>
2.91954

>  <SCORE.INTRA.VDW.0>
-7.46208

>  <SCORE.INTRA.norm>
0.0371213

>  <SCORE.RESTR>
1.91223

>  <SCORE.RESTR.CAVITY>
1.91223

>  <SCORE.RESTR.norm>
0.0390251

>  <SCORE.SYSTEM>
0

>  <SCORE.SYSTEM.CONST>
0

>  <SCORE.SYSTEM.DIHEDRAL>
0

>  <SCORE.SYSTEM.SOLV>
0

>  <SCORE.SYSTEM.norm>
0

>  <SCORE.heavy>
49

>  <SCORE.norm>
0.0533615

>  <RMSD>
11.818

$$$$
ligand
 OpenBabel11021811513D
libRbt.so/2013.1/901 2013/11/27
 49 52  0  0  0  0  0  0  0  0999 V2000
   27.4407    9.8817   11.5748 C   0  0  2  0  0  0  0  0  0  0  0  0
   26.5945   10.9534   11.8702 O   0  0  0  0  0  0  0  0  0  0  0  0
   26.6732    8.5244   11.7895 C   0  0  2  0  0  0  0  0  0  0  0  0
   25.4484    8.4965   10.8887 N   0  0  0  0  0  0  0  0  0  0  0  0
   28.6101   16.3883   12.0660 O   0  0  0  0  0  0  0  0  0  0  0  0
   26.2839    8.3552   13.2767 C   0  0  2  0  0  0  0  0  0  0  0  0
   29.0028   16.9252   14.8346 N   0  0  0  0  0  0  0  0  0  0  0  0
   27.5347    8.4066   14.1680 C   0  0  2  0  0  0  0  0  0  0  0  0
   28.3374    9.7627   13.9772 C   0  0  2  0  0  0  0  0  0  0  0  0
   28.6532    9.9130   12.4879 O   0  0  0  0  0  0  0  0  0  0  0  0
   29.6317    9.7842   14.8408 C   0  0  0  0  0  0  0  0  0  0  0  0
   30.2859   11.0434   14.8622 N   0  0  0  0  0  0  0  0  0  0  0  0
   25.9566   15.2186   12.3219 C   0  0  2  0  0  0  0  0  0  0  0  0
   26.2503   16.6525   12.6131 N   0  0  0  0  0  0  0  0  0  0  0  0
   26.5860   14.3576   13.5215 C   0  0  0  0  0  0  0  0  0  0  0  0
   26.2993   12.8247   13.3059 C   0  0  2  0  0  0  0  0  0  0  0  0
   26.8886   12.0231   14.3884 N   0  0  0  0  0  0  0  0  0  0  0  0
   26.9051   12.3511   11.9696 C   0  0  2  0  0  0  0  0  0  0  0  0
   26.3079   13.1840   10.7644 C   0  0  2  0  0  0  0  0  0  0  0  0
   26.9404   12.6532    9.5407 O   0  0  0  0  0  0  0  0  0  0  0  0
   26.6716   14.7411   10.9761 C   0  0  1  0  0  0  0  0  0  0  0  0
   26.1449   15.4552    9.9026 O   0  0  0  0  0  0  0  0  0  0  0  0
   27.4694   13.3344    8.5821 C   0  0  1  0  0  0  0  0  0  0  0  0
   28.8724   13.9410    8.8790 C   0  0  2  0  0  0  0  0  0  0  0  0
   28.6895   15.2184    9.4032 O   0  0  0  0  0  0  0  0  0  0  0  0
   29.3870   13.9881    7.5002 C   0  0  1  0  0  0  0  0  0  0  0  0
   28.9157   12.6976    6.7613 C   0  0  2  0  0  0  0  0  0  0  0  0
   27.6294   12.6038    7.3226 O   0  0  0  0  0  0  0  0  0  0  0  0
   29.8114   11.4597    6.8256 C   0  0  0  0  0  0  0  0  0  0  0  0
   30.4299   11.4838    8.0982 O   0  0  0  0  0  0  0  0  0  0  0  0
   27.4854   15.4132    6.8866 C   0  0  2  0  0  0  0  0  0  0  0  0
   28.8396   15.2408    6.8860 O   0  0  0  0  0  0  0  0  0  0  0  0
   26.8382   14.8007    5.6795 C   0  0  1  0  0  0  0  0  0  0  0  0
   25.6467   19.3510    8.4151 N   0  0  0  0  0  0  0  0  0  0  0  0
   26.9166   19.0406   13.8152 O   0  0  0  0  0  0  0  0  0  0  0  0
   25.2858   15.0811    5.7194 C   0  0  2  0  0  0  0  0  0  0  0  0
   24.9232   16.6044    5.8023 C   0  0  1  0  0  0  0  0  0  0  0  0
   25.5485   17.1686    6.9754 C   0  0  1  0  0  0  0  0  0  0  0  0
   27.0435   16.9120    6.9615 O   0  0  0  0  0  0  0  0  0  0  0  0
   25.2427   18.7272    7.0762 C   0  0  0  0  0  0  0  0  0  0  0  0
   27.3574   15.3829    4.5057 N   0  0  0  0  0  0  0  0  0  0  0  0
   25.7652    7.3460   13.4138 O   0  0  0  0  0  0  0  0  0  0  0  0
   29.0858   18.8543   13.1673 C   0  0  0  0  0  0  0  0  0  0  0  0
   25.3422   17.1269    4.8701 O   0  0  0  0  0  0  0  0  0  0  0  0
   24.8568   14.5868    6.6653 O   0  0  0  0  0  0  0  0  0  0  0  0
   27.6695   17.1042   12.4380 C   0  0  0  0  0  0  0  0  0  0  0  0
   29.2411   18.2533   14.3964 C   0  0  0  0  0  0  0  0  0  0  0  0
   27.8242   18.6766   12.7773 C   0  0  1  0  0  0  0  0  0  0  0  0
   28.3942    7.3404   13.8492 F   0  0  0  0  0  0  0  0  0  0  0  0
  1  2  1  1  0  0  0
  1 10  1  0  0  0  0
  1  3  1  0  0  0  0
  3  4  1  6  0  0  0
  3  6  1  0  0  0  0
  5 46  2  0  0  0  0
  6 42  1  6  0  0  0
  6  8  1  0  0  0  0
  7 47  1  0  0  0  0
  8  9  1  0  0  0  0
  8 49  1  6  0  0  0
  9 10  1  0  0  0  0
  9 11  1  1  0  0  0
 11 12  1  0  0  0  0
 13 14  1  1  0  0  0
 13 15  1  0  0  0  0
 13 21  1  0  0  0  0
 14 46  1  0  0  0  0
 15 16  1  0  0  0  0
 16 17  1  1  0  0  0
 16 18  1  0  0  0  0
 18  2  1  6  0  0  0
 18 19  1  0  0  0  0
 19 20  1  6  0  0  0
 19 21  1  0  0  0  0
 21 22  1  6  0  0  0
 23 20  1  1  0  0  0
 23 24  1  0  0  0  0
 23 28  1  0  0  0  0
 24 25  1  6  0  0  0
 24 26  1  0  0  0  0
 26 27  1  0  0  0  0
 26 32  1  6  0  0  0
 27 28  1  0  0  0  0
 27 29  1  1  0  0  0
 29 30  1  0  0  0  0
 31 32  1  6  0  0  0
 31 33  1  0  0  0  0
 31 39  1  0  0  0  0
 33 36  1  0  0  0  0
 33 41  1  6  0  0  0
 34 40  1  0  0  0  0
 35 48  1  0  0  0  0
 36 37  1  0  0  0  0
 36 45  1  1  0  0  0
 37 38  1  0  0  0  0
 37 44  1  6  0  0  0
 38 39  1  0  0  0  0
 38 40  1  6  0  0  0
 43 47  1  0  0  0  0
 46 48  1  0  0  0  0
 48 43  1  1  0  0  0
M  END
>  <CHROM.1>
171.79638795,-130.42745716,-171.28793502,72.62062812,-132.80451601,76.07035186
-55.89954804,33.61274217,-87.91491655,169.35780353,55.72259608,49.54312133
-147.50886994,27.36014862,13.75376509,10.39596003,0.60535331,1.43694855,-2.86464172

>  <Name>
ligand

>  <RI>
0

>  <Rbt.Current_Directory>
/home/itssahil/PROJECTS/Mol_Feturizer/New_Systems/rnas/4PDQ

>  <Rbt.Executable>
rbdock ($Id: //depot/dev/client3/rdock/2013.1/src/exe/rbdock.cxx#4 $)

>  <Rbt.Library>
libRbt.so (2013.1, Build901 2013/11/27)

>  <Rbt.Parameter_File>
/export/apps/rDock/src/rDock_2013.1_src/data/scripts/dock_solv.prm

>  <Rbt.Receptor>
prm/blind_docking_80.prm

>  <SCORE>
18.2025

>  <SCORE.INTER>
-0.882108

>  <SCORE.INTER.CONST>
1

>  <SCORE.INTER.POLAR>
0

>  <SCORE.INTER.ROT>
13

>  <SCORE.INTER.SOLV>
37.6724

>  <SCORE.INTER.VDW>
-25.4122

>  <SCORE.INTER.norm>
-0.0180022

>  <SCORE.INTRA>
10.1828

>  <SCORE.INTRA.DIHEDRAL>
-11.6445

>  <SCORE.INTRA.DIHEDRAL.0>
34.5115

>  <SCORE.INTRA.POLAR>
0

>  <SCORE.INTRA.POLAR.0>
0

>  <SCORE.INTRA.REPUL>
0.0363692

>  <SCORE.INTRA.REPUL.0>
0

>  <SCORE.INTRA.SOLV>
8.03741

>  <SCORE.INTRA.SOLV.lig_0>
-122.812

>  <SCORE.INTRA.VDW>
11.8045

>  <SCORE.INTRA.VDW.0>
-7.46208

>  <SCORE.INTRA.norm>
0.207812

>  <SCORE.RESTR>
8.9018

>  <SCORE.RESTR.CAVITY>
8.9018

>  <SCORE.RESTR.norm>
0.181669

>  <SCORE.SYSTEM>
0

>  <SCORE.SYSTEM.CONST>
0

>  <SCORE.SYSTEM.DIHEDRAL>
0

>  <SCORE.SYSTEM.SOLV>
0

>  <SCORE.SYSTEM.norm>
0

>  <SCORE.heavy>
49

>  <SCORE.norm>
0.371479

>  <RMSD>
11.837

$$$$
ligand
 OpenBabel11021811513D
libRbt.so/2013.1/901 2013/11/27
 49 52  0  0  0  0  0  0  0  0999 V2000
   25.5954   12.3126   13.2892 C   0  0  2  0  0  0  0  0  0  0  0  0
   26.2593   13.5404   13.3511 O   0  0  0  0  0  0  0  0  0  0  0  0
   26.0115   11.4216   14.5181 C   0  0  2  0  0  0  0  0  0  0  0  0
   25.6581   12.1509   15.8048 N   0  0  0  0  0  0  0  0  0  0  0  0
   23.0143   18.6010   10.2704 O   0  0  0  0  0  0  0  0  0  0  0  0
   27.5202   11.0875   14.4550 C   0  0  2  0  0  0  0  0  0  0  0  0
   25.3976   18.9088    6.8296 N   0  0  0  0  0  0  0  0  0  0  0  0
   27.8561   10.3695   13.1384 C   0  0  2  0  0  0  0  0  0  0  0  0
   27.4483   11.2383   11.8741 C   0  0  2  0  0  0  0  0  0  0  0  0
   25.9651   11.5888   12.0069 O   0  0  0  0  0  0  0  0  0  0  0  0
   27.7400   10.4820   10.5458 C   0  0  0  0  0  0  0  0  0  0  0  0
   27.0404    9.2537   10.4197 N   0  0  0  0  0  0  0  0  0  0  0  0
   25.2883   17.4037   11.6378 C   0  0  2  0  0  0  0  0  0  0  0  0
   25.3976   18.6184   10.7779 N   0  0  0  0  0  0  0  0  0  0  0  0
   26.7479   17.1255   12.2450 C   0  0  0  0  0  0  0  0  0  0  0  0
   26.7182   15.8671   13.1904 C   0  0  2  0  0  0  0  0  0  0  0  0
   28.0546   15.5898   13.7373 N   0  0  0  0  0  0  0  0  0  0  0  0
   26.2485   14.6236   12.4095 C   0  0  2  0  0  0  0  0  0  0  0  0
   24.8118   14.8665   11.7932 C   0  0  2  0  0  0  0  0  0  0  0  0
   24.4528   13.6256   11.0785 O   0  0  0  0  0  0  0  0  0  0  0  0
   24.8844   16.1189   10.7795 C   0  0  1  0  0  0  0  0  0  0  0  0
   23.6139   16.3113   10.2424 O   0  0  0  0  0  0  0  0  0  0  0  0
   24.4906   13.4245    9.8053 C   0  0  1  0  0  0  0  0  0  0  0  0
   23.9824   12.0328    9.3261 C   0  0  2  0  0  0  0  0  0  0  0  0
   25.0716   11.1658    9.2827 O   0  0  0  0  0  0  0  0  0  0  0  0
   23.5379   12.4150    7.9755 C   0  0  1  0  0  0  0  0  0  0  0  0
   22.8724   13.8232    8.0631 C   0  0  2  0  0  0  0  0  0  0  0  0
   23.7440   14.3984    9.0054 O   0  0  0  0  0  0  0  0  0  0  0  0
   21.3712   13.8970    8.3456 C   0  0  0  0  0  0  0  0  0  0  0  0
   21.0201   15.2656    8.2673 O   0  0  0  0  0  0  0  0  0  0  0  0
   25.5334   13.5289    7.0804 C   0  0  2  0  0  0  0  0  0  0  0  0
   24.7602   12.4042    7.1081 O   0  0  0  0  0  0  0  0  0  0  0  0
   26.0351   13.8348    5.6999 C   0  0  1  0  0  0  0  0  0  0  0  0
   29.8261   13.3722    8.7112 N   0  0  0  0  0  0  0  0  0  0  0  0
   24.1531   21.6030   10.0295 O   0  0  0  0  0  0  0  0  0  0  0  0
   26.9598   15.1125    5.7504 C   0  0  2  0  0  0  0  0  0  0  0  0
   28.1699   14.9749    6.7381 C   0  0  1  0  0  0  0  0  0  0  0  0
   27.6621   14.6908    8.0598 C   0  0  1  0  0  0  0  0  0  0  0  0
   26.7685   13.4652    8.0383 O   0  0  0  0  0  0  0  0  0  0  0  0
   28.8608   14.4993    9.0892 C   0  0  0  0  0  0  0  0  0  0  0  0
   26.8043   12.7575    5.2161 N   0  0  0  0  0  0  0  0  0  0  0  0
   27.7886   10.4076   15.3336 O   0  0  0  0  0  0  0  0  0  0  0  0
   25.6940   20.3835    8.8901 C   0  0  0  0  0  0  0  0  0  0  0  0
   28.8202   14.0944    6.3925 O   0  0  0  0  0  0  0  0  0  0  0  0
   26.3271   15.9978    6.1234 O   0  0  0  0  0  0  0  0  0  0  0  0
   24.1350   19.1128   10.1373 C   0  0  0  0  0  0  0  0  0  0  0  0
   25.8739   19.2563    8.1200 C   0  0  0  0  0  0  0  0  0  0  0  0
   24.4128   20.4361    9.2523 C   0  0  1  0  0  0  0  0  0  0  0  0
   27.1659    9.1463   13.0703 F   0  0  0  0  0  0  0  0  0  0  0  0
  1  2  1  1  0  0  0
  1 10  1  0  0  0  0
  1  3  1  0  0  0  0
  3  4  1  1  0  0  0
  3  6  1  0  0  0  0
  5 46  2  0  0  0  0
  6 42  1  1  0  0  0
  6  8  1  0  0  0  0
  7 47  1  0  0  0  0
  8  9  1  0  0  0  0
  8 49  1  1  0  0  0
  9 10  1  0  0  0  0
  9 11  1  6  0  0  0
 11 12  1  0  0  0  0
 13 14  1  6  0  0  0
 13 15  1  0  0  0  0
 13 21  1  0  0  0  0
 14 46  1  0  0  0  0
 15 16  1  0  0  0  0
 16 17  1  6  0  0  0
 16 18  1  0  0  0  0
 18  2  1  1  0  0  0
 18 19  1  0  0  0  0
 19 20  1  6  0  0  0
 19 21  1  0  0  0  0
 21 22  1  1  0  0  0
 23 20  1  1  0  0  0
 23 24  1  0  0  0  0
 23 28  1  0  0  0  0
 24 25  1  6  0  0  0
 24 26  1  0  0  0  0
 26 27  1  0  0  0  0
 26 32  1  6  0  0  0
 27 28  1  0  0  0  0
 27 29  1  1  0  0  0
 29 30  1  0  0  0  0
 31 32  1  6  0  0  0
 31 33  1  0  0  0  0
 31 39  1  0  0  0  0
 33 36  1  0  0  0  0
 33 41  1  1  0  0  0
 34 40  1  0  0  0  0
 35 48  1  0  0  0  0
 36 37  1  0  0  0  0
 36 45  1  1  0  0  0
 37 38  1  0  0  0  0
 37 44  1  6  0  0  0
 38 39  1  0  0  0  0
 38 40  1  1  0  0  0
 43 47  1  0  0  0  0
 46 48  1  0  0  0  0
 48 43  1  1  0  0  0
M  END
>  <CHROM.1>
175.89046091,160.40854223,60.12707383,-177.61582311,-102.45126620,-176.96136488
-85.21300202,-175.54442922,-140.04614564,-58.75718351,67.46190939,-178.62614483
84.63494930,25.77480410,14.38379472,10.07111011,0.45880742,-1.29943652,1.48321318

>  <Name>
ligand

>  <RI>
0

>  <Rbt.Current_Directory>
/home/itssahil/PROJECTS/Mol_Feturizer/New_Systems/rnas/4PDQ

>  <Rbt.Executable>
rbdock ($Id: //depot/dev/client3/rdock/2013.1/src/exe/rbdock.cxx#4 $)

>  <Rbt.Library>
libRbt.so (2013.1, Build901 2013/11/27)

>  <Rbt.Parameter_File>
/export/apps/rDock/src/rDock_2013.1_src/data/scripts/dock_solv.prm

>  <Rbt.Receptor>
prm/blind_docking_80.prm

>  <SCORE>
1.65689

>  <SCORE.INTER>
-4.88436

>  <SCORE.INTER.CONST>
1

>  <SCORE.INTER.POLAR>
0

>  <SCORE.INTER.ROT>
13

>  <SCORE.INTER.SOLV>
28.212

>  <SCORE.INTER.VDW>
-24.9269

>  <SCORE.INTER.norm>
-0.0996808

>  <SCORE.INTRA>
4.08876

>  <SCORE.INTRA.DIHEDRAL>
-16.5919

>  <SCORE.INTRA.DIHEDRAL.0>
34.5115

>  <SCORE.INTRA.POLAR>
0

>  <SCORE.INTRA.POLAR.0>
0

>  <SCORE.INTRA.REPUL>
0.00317378

>  <SCORE.INTRA.REPUL.0>
0

>  <SCORE.INTRA.SOLV>
4.88523

>  <SCORE.INTRA.SOLV.lig_0>
-122.812

>  <SCORE.INTRA.VDW>
9.92622

>  <SCORE.INTRA.VDW.0>
-7.46208

>  <SCORE.INTRA.norm>
0.0834441

>  <SCORE.RESTR>
2.45249

>  <SCORE.RESTR.CAVITY>
2.45249

>  <SCORE.RESTR.norm>
0.0500509

>  <SCORE.SYSTEM>
0

>  <SCORE.SYSTEM.CONST>
0

>  <SCORE.SYSTEM.DIHEDRAL>
0

>  <SCORE.SYSTEM.SOLV>
0

>  <SCORE.SYSTEM.norm>
0

>  <SCORE.heavy>
49

>  <SCORE.norm>
0.0338142

>  <RMSD>
11.853

$$$$
ligand
 OpenBabel11021811513D
libRbt.so/2013.1/901 2013/11/27
 49 52  0  0  0  0  0  0  0  0999 V2000
   27.3779   15.2350   13.9760 C   0  0  2  0  0  0  0  0  0  0  0  0
   26.2525   14.4202   14.1226 O   0  0  0  0  0  0  0  0  0  0  0  0
   26.9686   16.7437   14.1590 C   0  0  2  0  0  0  0  0  0  0  0  0
   26.3554   16.9300   15.5381 N   0  0  0  0  0  0  0  0  0  0  0  0
   28.5412    9.3579   10.0283 O   0  0  0  0  0  0  0  0  0  0  0  0
   25.9890   17.1752   13.0428 C   0  0  2  0  0  0  0  0  0  0  0  0
   28.6761    4.0976   12.3463 N   0  0  0  0  0  0  0  0  0  0  0  0
   26.6228   16.9592   11.6597 C   0  0  2  0  0  0  0  0  0  0  0  0
   27.0511   15.4468   11.4387 C   0  0  2  0  0  0  0  0  0  0  0  0
   27.9741   15.0495   12.5922 O   0  0  0  0  0  0  0  0  0  0  0  0
   27.7422   15.2469   10.0588 C   0  0  0  0  0  0  0  0  0  0  0  0
   27.9272   13.8858    9.7021 N   0  0  0  0  0  0  0  0  0  0  0  0
   27.0253   10.6297   12.1636 C   0  0  2  0  0  0  0  0  0  0  0  0
   26.9795    9.1636   11.8888 N   0  0  0  0  0  0  0  0  0  0  0  0
   27.2970   10.8043   13.7359 C   0  0  0  0  0  0  0  0  0  0  0  0
   27.3854   12.3306   14.1113 C   0  0  2  0  0  0  0  0  0  0  0  0
   27.6141   12.5042   15.5533 N   0  0  0  0  0  0  0  0  0  0  0  0
   26.0723   13.0485   13.7408 C   0  0  2  0  0  0  0  0  0  0  0  0
   25.7722   12.8919   12.1954 C   0  0  2  0  0  0  0  0  0  0  0  0
   24.5095   13.6142   11.9436 O   0  0  0  0  0  0  0  0  0  0  0  0
   25.6215   11.3236   11.8500 C   0  0  1  0  0  0  0  0  0  0  0  0
   25.3502   11.2074   10.4889 O   0  0  0  0  0  0  0  0  0  0  0  0
   24.1707   14.2320   10.8637 C   0  0  1  0  0  0  0  0  0  0  0  0
   22.7007   14.0184   10.3964 C   0  0  2  0  0  0  0  0  0  0  0  0
   22.6760   12.9284    9.5297 O   0  0  0  0  0  0  0  0  0  0  0  0
   22.5128   15.2892    9.6768 C   0  0  1  0  0  0  0  0  0  0  0  0
   23.2229   16.4167   10.4879 C   0  0  2  0  0  0  0  0  0  0  0  0
   24.3502   15.6852   10.9032 O   0  0  0  0  0  0  0  0  0  0  0  0
   22.4181   17.1522   11.5605 C   0  0  0  0  0  0  0  0  0  0  0  0
   21.3530   17.7948   10.8857 O   0  0  0  0  0  0  0  0  0  0  0  0
   24.1791   15.8628    7.9686 C   0  0  2  0  0  0  0  0  0  0  0  0
   23.1039   15.0955    8.3132 O   0  0  0  0  0  0  0  0  0  0  0  0
   23.7818   17.2671    7.6205 C   0  0  1  0  0  0  0  0  0  0  0  0
   27.1800   13.8738    5.3399 N   0  0  0  0  0  0  0  0  0  0  0  0
   28.2581    6.6400    9.3580 O   0  0  0  0  0  0  0  0  0  0  0  0
   25.0620   18.0801    7.1843 C   0  0  2  0  0  0  0  0  0  0  0  0
   25.8394   17.4344    5.9854 C   0  0  1  0  0  0  0  0  0  0  0  0
   26.2191   16.0890    6.3474 C   0  0  1  0  0  0  0  0  0  0  0  0
   25.0045   15.2853    6.7717 O   0  0  0  0  0  0  0  0  0  0  0  0
   26.9746   15.3781    5.1404 C   0  0  0  0  0  0  0  0  0  0  0  0
   22.8793   17.2592    6.5381 N   0  0  0  0  0  0  0  0  0  0  0  0
   25.7392   18.2829   13.1737 O   0  0  0  0  0  0  0  0  0  0  0  0
   28.3048    6.5165   11.6257 C   0  0  0  0  0  0  0  0  0  0  0  0
   25.1356   17.3911    5.0797 O   0  0  0  0  0  0  0  0  0  0  0  0
   25.7897   18.1070    8.0747 O   0  0  0  0  0  0  0  0  0  0  0  0
   27.8148    8.6597   10.7499 C   0  0  0  0  0  0  0  0  0  0  0  0
   28.1418    5.1508   11.5602 C   0  0  0  0  0  0  0  0  0  0  0  0
   27.6694    7.0585   10.5875 C   0  0  1  0  0  0  0  0  0  0  0  0
   27.7690   17.7629   11.5272 F   0  0  0  0  0  0  0  0  0  0  0  0
  1  2  1  6  0  0  0
  1 10  1  0  0  0  0
  1  3  1  0  0  0  0
  3  4  1  1  0  0  0
  3  6  1  0  0  0  0
  5 46  2  0  0  0  0
  6 42  1  1  0  0  0
  6  8  1  0  0  0  0
  7 47  1  0  0  0  0
  8  9  1  0  0  0  0
  8 49  1  1  0  0  0
  9 10  1  0  0  0  0
  9 11  1  6  0  0  0
 11 12  1  0  0  0  0
 13 14  1  1  0  0  0
 13 15  1  0  0  0  0
 13 21  1  0  0  0  0
 14 46  1  0  0  0  0
 15 16  1  0  0  0  0
 16 17  1  1  0  0  0
 16 18  1  0  0  0  0
 18  2  1  6  0  0  0
 18 19  1  0  0  0  0
 19 20  1  1  0  0  0
 19 21  1  0  0  0  0
 21 22  1  6  0  0  0
 23 20  1  1  0  0  0
 23 24  1  0  0  0  0
 23 28  1  0  0  0  0
 24 25  1  6  0  0  0
 24 26  1  0  0  0  0
 26 27  1  0  0  0  0
 26 32  1  6  0  0  0
 27 28  1  0  0  0  0
 27 29  1  1  0  0  0
 29 30  1  0  0  0  0
 31 32  1  6  0  0  0
 31 33  1  0  0  0  0
 31 39  1  0  0  0  0
 33 36  1  0  0  0  0
 33 41  1  6  0  0  0
 34 40  1  0  0  0  0
 35 48  1  0  0  0  0
 36 37  1  0  0  0  0
 36 45  1  1  0  0  0
 37 38  1  0  0  0  0
 37 44  1  6  0  0  0
 38 39  1  0  0  0  0
 38 40  1  6  0  0  0
 43 47  1  0  0  0  0
 46 48  1  0  0  0  0
 48 43  1  1  0  0  0
M  END
>  <CHROM.1>
163.83413582,41.11817387,-169.16440427,-130.50618220,148.24149404,137.49336700
-116.30142679,-62.19003271,-76.57303909,-169.19031560,175.05721190,-63.72146619
-11.99473378,25.89829101,13.89150148,10.58467108,-0.15228126,-1.24488049
1.08999110

>  <Name>
ligand

>  <RI>
0

>  <Rbt.Current_Directory>
/home/itssahil/PROJECTS/Mol_Feturizer/New_Systems/rnas/4PDQ

>  <Rbt.Executable>
rbdock ($Id: //depot/dev/client3/rdock/2013.1/src/exe/rbdock.cxx#4 $)

>  <Rbt.Library>
libRbt.so (2013.1, Build901 2013/11/27)

>  <Rbt.Parameter_File>
/export/apps/rDock/src/rDock_2013.1_src/data/scripts/dock_solv.prm

>  <Rbt.Receptor>
prm/blind_docking_60.prm

>  <SCORE>
7.46696

>  <SCORE.INTER>
8.49726

>  <SCORE.INTER.CONST>
1

>  <SCORE.INTER.POLAR>
0

>  <SCORE.INTER.ROT>
13

>  <SCORE.INTER.SOLV>
31.69

>  <SCORE.INTER.VDW>
-17.1652

>  <SCORE.INTER.norm>
0.173414

>  <SCORE.INTRA>
-2.88201

>  <SCORE.INTRA.DIHEDRAL>
-10.4996

>  <SCORE.INTRA.DIHEDRAL.0>
34.5115

>  <SCORE.INTRA.POLAR>
0

>  <SCORE.INTRA.POLAR.0>
0

>  <SCORE.INTRA.REPUL>
0

>  <SCORE.INTRA.REPUL.0>
0

>  <SCORE.INTRA.SOLV>
0.0465962

>  <SCORE.INTRA.SOLV.lig_0>
-122.812

>  <SCORE.INTRA.VDW>
2.34448

>  <SCORE.INTRA.VDW.0>
-7.46208

>  <SCORE.INTRA.norm>
-0.0588166

>  <SCORE.RESTR>
1.85171

>  <SCORE.RESTR.CAVITY>
1.85171

>  <SCORE.RESTR.norm>
0.03779

>  <SCORE.SYSTEM>
0

>  <SCORE.SYSTEM.CONST>
0

>  <SCORE.SYSTEM.DIHEDRAL>
0

>  <SCORE.SYSTEM.SOLV>
0

>  <SCORE.SYSTEM.norm>
0

>  <SCORE.heavy>
49

>  <SCORE.norm>
0.152387

>  <RMSD>
11.869

$$$$
ligand
 OpenBabel11021811513D
libRbt.so/2013.1/901 2013/11/27
 49 52  0  0  0  0  0  0  0  0999 V2000
   26.1032   12.4531   13.1388 C   0  0  2  0  0  0  0  0  0  0  0  0
   26.8102   13.6227   12.8487 O   0  0  0  0  0  0  0  0  0  0  0  0
   26.7926   11.6992   14.3361 C   0  0  2  0  0  0  0  0  0  0  0  0
   26.8235   12.6146   15.5500 N   0  0  0  0  0  0  0  0  0  0  0  0
   25.6026   17.8151    9.0564 O   0  0  0  0  0  0  0  0  0  0  0  0
   28.2153   11.2424   13.9374 C   0  0  2  0  0  0  0  0  0  0  0  0
   25.9496   22.7616    8.0170 N   0  0  0  0  0  0  0  0  0  0  0  0
   28.1601   10.3357   12.6979 C   0  0  2  0  0  0  0  0  0  0  0  0
   27.4683   11.0624   11.4679 C   0  0  2  0  0  0  0  0  0  0  0  0
   26.0893   11.5424   11.9243 O   0  0  0  0  0  0  0  0  0  0  0  0
   27.3658   10.1197   10.2341 C   0  0  0  0  0  0  0  0  0  0  0  0
   26.4957    9.0153   10.4270 N   0  0  0  0  0  0  0  0  0  0  0  0
   25.0071   17.4459   11.8819 C   0  0  2  0  0  0  0  0  0  0  0  0
   24.7308   18.7148   11.1465 N   0  0  0  0  0  0  0  0  0  0  0  0
   26.6023   17.3002   11.9839 C   0  0  0  0  0  0  0  0  0  0  0  0
   26.9846   15.9921   12.7719 C   0  0  2  0  0  0  0  0  0  0  0  0
   28.4443   15.8367   12.8546 N   0  0  0  0  0  0  0  0  0  0  0  0
   26.4066   14.7523   12.0606 C   0  0  2  0  0  0  0  0  0  0  0  0
   24.8333   14.8662   11.9396 C   0  0  2  0  0  0  0  0  0  0  0  0
   24.3806   13.6378   11.2573 O   0  0  0  0  0  0  0  0  0  0  0  0
   24.4707   16.1775   11.0733 C   0  0  1  0  0  0  0  0  0  0  0  0
   23.0839   16.2555   10.9717 O   0  0  0  0  0  0  0  0  0  0  0  0
   24.3547   13.4202    9.9866 C   0  0  1  0  0  0  0  0  0  0  0  0
   23.6833   12.0871    9.5433 C   0  0  2  0  0  0  0  0  0  0  0  0
   24.6700   11.1062    9.4779 O   0  0  0  0  0  0  0  0  0  0  0  0
   23.2389   12.5010    8.2020 C   0  0  1  0  0  0  0  0  0  0  0  0
   22.7332   13.9741    8.2906 C   0  0  2  0  0  0  0  0  0  0  0  0
   23.6924   14.4610    9.1968 O   0  0  0  0  0  0  0  0  0  0  0  0
   21.2589   14.2138    8.6189 C   0  0  0  0  0  0  0  0  0  0  0  0
   21.0448   15.6064    8.4866 O   0  0  0  0  0  0  0  0  0  0  0  0
   25.1912   13.4514    7.0578 C   0  0  2  0  0  0  0  0  0  0  0  0
   24.4237   12.3480    7.2970 O   0  0  0  0  0  0  0  0  0  0  0  0
   25.6164   13.5424    5.6219 C   0  0  1  0  0  0  0  0  0  0  0  0
   29.7897   15.5728    8.2583 N   0  0  0  0  0  0  0  0  0  0  0  0
   23.3114   20.3267    8.9599 O   0  0  0  0  0  0  0  0  0  0  0  0
   26.5389   14.8080    5.4287 C   0  0  2  0  0  0  0  0  0  0  0  0
   27.8013   14.8147    6.3589 C   0  0  1  0  0  0  0  0  0  0  0  0
   27.3667   14.7363    7.7339 C   0  0  1  0  0  0  0  0  0  0  0  0
   26.4766   13.5265    7.9463 O   0  0  0  0  0  0  0  0  0  0  0  0
   28.6199   14.6960    8.7141 C   0  0  0  0  0  0  0  0  0  0  0  0
   26.3613   12.4002    5.2656 N   0  0  0  0  0  0  0  0  0  0  0  0
   28.6785   10.6633   14.8071 O   0  0  0  0  0  0  0  0  0  0  0  0
   25.2577   21.1082    9.8324 C   0  0  0  0  0  0  0  0  0  0  0  0
   28.4343   13.8886    6.1158 O   0  0  0  0  0  0  0  0  0  0  0  0
   25.9250   15.7430    5.6971 O   0  0  0  0  0  0  0  0  0  0  0  0
   25.0983   18.7511    9.6931 C   0  0  0  0  0  0  0  0  0  0  0  0
   26.1456   21.8524    9.0883 C   0  0  0  0  0  0  0  0  0  0  0  0
   24.7278   20.1804    9.0363 C   0  0  1  0  0  0  0  0  0  0  0  0
   27.4262    9.1718   12.9882 F   0  0  0  0  0  0  0  0  0  0  0  0
  1  2  1  6  0  0  0
  1 10  1  0  0  0  0
  1  3  1  0  0  0  0
  3  4  1  1  0  0  0
  3  6  1  0  0  0  0
  5 46  2  0  0  0  0
  6 42  1  1  0  0  0
  6  8  1  0  0  0  0
  7 47  1  0  0  0  0
  8  9  1  0  0  0  0
  8 49  1  1  0  0  0
  9 10  1  0  0  0  0
  9 11  1  6  0  0  0
 11 12  1  0  0  0  0
 13 14  1  6  0  0  0
 13 15  1  0  0  0  0
 13 21  1  0  0  0  0
 14 46  1  0  0  0  0
 15 16  1  0  0  0  0
 16 17  1  6  0  0  0
 16 18  1  0  0  0  0
 18  2  1  1  0  0  0
 18 19  1  0  0  0  0
 19 20  1  6  0  0  0
 19 21  1  0  0  0  0
 21 22  1  1  0  0  0
 23 20  1  1  0  0  0
 23 24  1  0  0  0  0
 23 28  1  0  0  0  0
 24 25  1  6  0  0  0
 24 26  1  0  0  0  0
 26 27  1  0  0  0  0
 26 32  1  6  0  0  0
 27 28  1  0  0  0  0
 27 29  1  1  0  0  0
 29 30  1  0  0  0  0
 31 32  1  6  0  0  0
 31 33  1  0  0  0  0
 31 39  1  0  0  0  0
 33 36  1  0  0  0  0
 33 41  1  1  0  0  0
 34 40  1  0  0  0  0
 35 48  1  0  0  0  0
 36 37  1  0  0  0  0
 36 45  1  1  0  0  0
 37 38  1  0  0  0  0
 37 44  1  6  0  0  0
 38 39  1  0  0  0  0
 38 40  1  1  0  0  0
 43 47  1  0  0  0  0
 46 48  1  0  0  0  0
 48 43  1  1  0  0  0
M  END
>  <CHROM.1>
-164.83078251,142.76080002,66.30112522,68.52368390,-83.58690840,-173.68423323
-95.74622841,-173.54729092,-139.19279164,36.80486690,67.98499194,-120.11729831
109.85283489,25.79936374,14.53244985,9.98711005,-0.56346423,-1.30300391,0.56378438

>  <Name>
ligand

>  <RI>
0

>  <Rbt.Current_Directory>
/home/itssahil/PROJECTS/Mol_Feturizer/New_Systems/rnas/4PDQ

>  <Rbt.Executable>
rbdock ($Id: //depot/dev/client3/rdock/2013.1/src/exe/rbdock.cxx#4 $)

>  <Rbt.Library>
libRbt.so (2013.1, Build901 2013/11/27)

>  <Rbt.Parameter_File>
/export/apps/rDock/src/rDock_2013.1_src/data/scripts/dock_solv.prm

>  <Rbt.Receptor>
prm/blind_docking_80.prm

>  <SCORE>
1.12862

>  <SCORE.INTER>
-4.71252

>  <SCORE.INTER.CONST>
1

>  <SCORE.INTER.POLAR>
0

>  <SCORE.INTER.ROT>
13

>  <SCORE.INTER.SOLV>
32.7192

>  <SCORE.INTER.VDW>
-26.3148

>  <SCORE.INTER.norm>
-0.0961738

>  <SCORE.INTRA>
1.23277

>  <SCORE.INTRA.DIHEDRAL>
-7.31102

>  <SCORE.INTRA.DIHEDRAL.0>
34.5115

>  <SCORE.INTRA.POLAR>
0

>  <SCORE.INTRA.POLAR.0>
0

>  <SCORE.INTRA.REPUL>
0.202348

>  <SCORE.INTRA.REPUL.0>
0

>  <SCORE.INTRA.SOLV>
2.20137

>  <SCORE.INTRA.SOLV.lig_0>
-122.812

>  <SCORE.INTRA.VDW>
2.77586

>  <SCORE.INTRA.VDW.0>
-7.46208

>  <SCORE.INTRA.norm>
0.0251586

>  <SCORE.RESTR>
4.60836

>  <SCORE.RESTR.CAVITY>
4.60836

>  <SCORE.RESTR.norm>
0.0940482

>  <SCORE.SYSTEM>
0

>  <SCORE.SYSTEM.CONST>
0

>  <SCORE.SYSTEM.DIHEDRAL>
0

>  <SCORE.SYSTEM.SOLV>
0

>  <SCORE.SYSTEM.norm>
0

>  <SCORE.heavy>
49

>  <SCORE.norm>
0.023033

>  <RMSD>
11.882

$$$$
ligand
 OpenBabel11021811513D
libRbt.so/2013.1/901 2013/11/27
 49 52  0  0  0  0  0  0  0  0999 V2000
   24.6575   18.0663   11.7322 C   0  0  2  0  0  0  0  0  0  0  0  0
   25.0304   16.9653   10.9571 O   0  0  0  0  0  0  0  0  0  0  0  0
   23.0937   18.2397   11.6904 C   0  0  2  0  0  0  0  0  0  0  0  0
   22.4375   16.9735   12.2182 N   0  0  0  0  0  0  0  0  0  0  0  0
   25.0521   11.8349   13.5100 O   0  0  0  0  0  0  0  0  0  0  0  0
   22.6255   18.5605   10.2518 C   0  0  2  0  0  0  0  0  0  0  0  0
   27.6207   10.0129   15.9116 N   0  0  0  0  0  0  0  0  0  0  0  0
   23.3165   19.8315    9.7335 C   0  0  2  0  0  0  0  0  0  0  0  0
   24.8976   19.6947    9.7624 C   0  0  2  0  0  0  0  0  0  0  0  0
   25.3086   19.3256   11.1890 O   0  0  0  0  0  0  0  0  0  0  0  0
   25.5909   21.0050    9.2889 C   0  0  0  0  0  0  0  0  0  0  0  0
   24.8452   21.7324    8.3251 N   0  0  0  0  0  0  0  0  0  0  0  0
   26.5926   12.9347   11.2982 C   0  0  2  0  0  0  0  0  0  0  0  0
   26.7797   11.5475   11.8156 N   0  0  0  0  0  0  0  0  0  0  0  0
   26.5761   13.9123   12.5711 C   0  0  0  0  0  0  0  0  0  0  0  0
   26.4062   15.4084   12.1118 C   0  0  2  0  0  0  0  0  0  0  0  0
   26.3694   16.3125   13.2708 N   0  0  0  0  0  0  0  0  0  0  0  0
   25.0919   15.5792   11.3243 C   0  0  2  0  0  0  0  0  0  0  0  0
   25.0738   14.6246   10.0628 C   0  0  2  0  0  0  0  0  0  0  0  0
   23.7886   14.8676    9.3782 O   0  0  0  0  0  0  0  0  0  0  0  0
   25.1831   13.0957   10.5646 C   0  0  1  0  0  0  0  0  0  0  0  0
   25.1576   12.2720    9.4418 O   0  0  0  0  0  0  0  0  0  0  0  0
   23.6006   15.5463    8.2980 C   0  0  1  0  0  0  0  0  0  0  0  0
   22.9149   14.7793    7.1293 C   0  0  2  0  0  0  0  0  0  0  0  0
   23.9119   14.2053    6.3443 O   0  0  0  0  0  0  0  0  0  0  0  0
   22.2848   15.9262    6.4544 C   0  0  1  0  0  0  0  0  0  0  0  0
   21.7532   16.9023    7.5490 C   0  0  2  0  0  0  0  0  0  0  0  0
   22.8097   16.7676    8.4677 O   0  0  0  0  0  0  0  0  0  0  0  0
   20.3292   16.6995    8.0686 C   0  0  0  0  0  0  0  0  0  0  0  0
   20.3548   15.5152    8.8429 O   0  0  0  0  0  0  0  0  0  0  0  0
   24.5003   16.9488    6.1911 C   0  0  2  0  0  0  0  0  0  0  0  0
   23.3429   16.5437    5.5911 O   0  0  0  0  0  0  0  0  0  0  0  0
   25.0578   18.1909    5.5607 C   0  0  1  0  0  0  0  0  0  0  0  0
   27.4930   13.7779    7.5050 N   0  0  0  0  0  0  0  0  0  0  0  0
   25.6417    8.7024   12.4603 O   0  0  0  0  0  0  0  0  0  0  0  0
   26.4165   18.5716    6.2673 C   0  0  2  0  0  0  0  0  0  0  0  0
   27.4884   17.4278    6.2280 C   0  0  1  0  0  0  0  0  0  0  0  0
   26.9329   16.2478    6.8482 C   0  0  1  0  0  0  0  0  0  0  0  0
   25.6240   15.8605    6.1864 O   0  0  0  0  0  0  0  0  0  0  0  0
   27.9734   15.0448    6.7915 C   0  0  0  0  0  0  0  0  0  0  0  0
   25.3242   17.9618    4.1959 N   0  0  0  0  0  0  0  0  0  0  0  0
   21.4940   18.7218   10.2552 O   0  0  0  0  0  0  0  0  0  0  0  0
   27.5490    9.4806   13.4176 C   0  0  0  0  0  0  0  0  0  0  0  0
   27.7268   17.1934    5.1299 O   0  0  0  0  0  0  0  0  0  0  0  0
   26.1967   18.7813    7.3767 O   0  0  0  0  0  0  0  0  0  0  0  0
   25.9119   11.1284   12.9646 C   0  0  0  0  0  0  0  0  0  0  0  0
   28.0204   10.1006   14.5531 C   0  0  0  0  0  0  0  0  0  0  0  0
   26.2224    9.6036   13.4005 C   0  0  1  0  0  0  0  0  0  0  0  0
   22.9573   20.9316   10.5323 F   0  0  0  0  0  0  0  0  0  0  0  0
  1  2  1  6  0  0  0
  1 10  1  0  0  0  0
  1  3  1  0  0  0  0
  3  4  1  6  0  0  0
  3  6  1  0  0  0  0
  5 46  2  0  0  0  0
  6 42  1  1  0  0  0
  6  8  1  0  0  0  0
  7 47  1  0  0  0  0
  8  9  1  0  0  0  0
  8 49  1  1  0  0  0
  9 10  1  0  0  0  0
  9 11  1  1  0  0  0
 11 12  1  0  0  0  0
 13 14  1  1  0  0  0
 13 15  1  0  0  0  0
 13 21  1  0  0  0  0
 14 46  1  0  0  0  0
 15 16  1  0  0  0  0
 16 17  1  1  0  0  0
 16 18  1  0  0  0  0
 18  2  1  6  0  0  0
 18 19  1  0  0  0  0
 19 20  1  1  0  0  0
 19 21  1  0  0  0  0
 21 22  1  6  0  0  0
 23 20  1  1  0  0  0
 23 24  1  0  0  0  0
 23 28  1  0  0  0  0
 24 25  1  6  0  0  0
 24 26  1  0  0  0  0
 26 27  1  0  0  0  0
 26 32  1  6  0  0  0
 27 28  1  0  0  0  0
 27 29  1  1  0  0  0
 29 30  1  0  0  0  0
 31 32  1  6  0  0  0
 31 33  1  0  0  0  0
 31 39  1  0  0  0  0
 33 36  1  0  0  0  0
 33 41  1  6  0  0  0
 34 40  1  0  0  0  0
 35 48  1  0  0  0  0
 36 37  1  0  0  0  0
 36 45  1  1  0  0  0
 37 38  1  0  0  0  0
 37 44  1  6  0  0  0
 38 39  1  0  0  0  0
 38 40  1  6  0  0  0
 43 47  1  0  0  0  0
 46 48  1  0  0  0  0
 48 43  1  6  0  0  0
M  END
>  <CHROM.1>
-85.52975182,-79.07902178,-31.26771551,47.52242771,103.82769274,122.75806808
-56.70793152,70.80067924,-144.84124231,176.48745247,48.67507159,-164.78936541
103.27553727,24.89310741,15.74786085,9.55653882,2.15570057,1.11963998,-1.16587101

>  <Name>
ligand

>  <RI>
0

>  <Rbt.Current_Directory>
/home/itssahil/PROJECTS/Mol_Feturizer/New_Systems/rnas/4PDQ

>  <Rbt.Executable>
rbdock ($Id: //depot/dev/client3/rdock/2013.1/src/exe/rbdock.cxx#4 $)

>  <Rbt.Library>
libRbt.so (2013.1, Build901 2013/11/27)

>  <Rbt.Parameter_File>
/export/apps/rDock/src/rDock_2013.1_src/data/scripts/dock_solv.prm

>  <Rbt.Receptor>
prm/blind_docking_40.prm

>  <SCORE>
8.81656

>  <SCORE.INTER>
-0.684961

>  <SCORE.INTER.CONST>
1

>  <SCORE.INTER.POLAR>
0

>  <SCORE.INTER.ROT>
13

>  <SCORE.INTER.SOLV>
34.4877

>  <SCORE.INTER.VDW>
-24.2192

>  <SCORE.INTER.norm>
-0.0139788

>  <SCORE.INTRA>
8.4821

>  <SCORE.INTRA.DIHEDRAL>
-6.96682

>  <SCORE.INTRA.DIHEDRAL.0>
34.5115

>  <SCORE.INTRA.POLAR>
0

>  <SCORE.INTRA.POLAR.0>
0

>  <SCORE.INTRA.REPUL>
0.21272

>  <SCORE.INTRA.REPUL.0>
0

>  <SCORE.INTRA.SOLV>
7.99293

>  <SCORE.INTRA.SOLV.lig_0>
-122.812

>  <SCORE.INTRA.VDW>
6.90544

>  <SCORE.INTRA.VDW.0>
-7.46208

>  <SCORE.INTRA.norm>
0.173104

>  <SCORE.RESTR>
1.01942

>  <SCORE.RESTR.CAVITY>
1.01942

>  <SCORE.RESTR.norm>
0.0208045

>  <SCORE.SYSTEM>
0

>  <SCORE.SYSTEM.CONST>
0

>  <SCORE.SYSTEM.DIHEDRAL>
0

>  <SCORE.SYSTEM.SOLV>
0

>  <SCORE.SYSTEM.norm>
0

>  <SCORE.heavy>
49

>  <SCORE.norm>
0.17993

>  <RMSD>
11.885

$$$$
ligand
 OpenBabel11021811513D
libRbt.so/2013.1/901 2013/11/27
 49 52  0  0  0  0  0  0  0  0999 V2000
   23.8209   17.4077   11.6186 C   0  0  2  0  0  0  0  0  0  0  0  0
   23.8930   16.5633   10.5079 O   0  0  0  0  0  0  0  0  0  0  0  0
   23.6593   18.8990   11.1420 C   0  0  2  0  0  0  0  0  0  0  0  0
   22.3977   19.0198   10.3017 N   0  0  0  0  0  0  0  0  0  0  0  0
   27.9884   11.8580   13.4631 O   0  0  0  0  0  0  0  0  0  0  0  0
   24.9094   19.3504   10.3513 C   0  0  2  0  0  0  0  0  0  0  0  0
   25.9267    8.0133   14.5036 N   0  0  0  0  0  0  0  0  0  0  0  0
   26.1726   19.2006   11.2135 C   0  0  2  0  0  0  0  0  0  0  0  0
   26.3686   17.7074   11.7152 C   0  0  2  0  0  0  0  0  0  0  0  0
   25.0901   17.2877   12.4429 O   0  0  0  0  0  0  0  0  0  0  0  0
   27.6183   17.5748   12.6329 C   0  0  0  0  0  0  0  0  0  0  0  0
   28.6713   16.8142   12.0613 N   0  0  0  0  0  0  0  0  0  0  0  0
   25.9511   12.9318   11.6824 C   0  0  2  0  0  0  0  0  0  0  0  0
   26.3379   11.4907   11.7085 N   0  0  0  0  0  0  0  0  0  0  0  0
   24.3471   12.9869   11.6560 C   0  0  0  0  0  0  0  0  0  0  0  0
   23.8494   14.4804   11.6523 C   0  0  2  0  0  0  0  0  0  0  0  0
   22.3811   14.5443   11.6078 N   0  0  0  0  0  0  0  0  0  0  0  0
   24.4026   15.2244   10.4205 C   0  0  2  0  0  0  0  0  0  0  0  0
   25.9841   15.1852   10.4137 C   0  0  2  0  0  0  0  0  0  0  0  0
   26.4113   15.9247    9.2095 O   0  0  0  0  0  0  0  0  0  0  0  0
   26.4672   13.6476   10.3513 C   0  0  1  0  0  0  0  0  0  0  0  0
   27.8597   13.6348   10.3381 O   0  0  0  0  0  0  0  0  0  0  0  0
   25.7157   16.1452    8.1464 C   0  0  1  0  0  0  0  0  0  0  0  0
   26.1966   17.3304    7.2584 C   0  0  2  0  0  0  0  0  0  0  0  0
   25.5331   18.4815    7.6765 O   0  0  0  0  0  0  0  0  0  0  0  0
   25.6900   16.8520    5.9613 C   0  0  1  0  0  0  0  0  0  0  0  0
   25.9085   15.3090    5.8933 C   0  0  2  0  0  0  0  0  0  0  0  0
   25.6078   15.0048    7.2333 O   0  0  0  0  0  0  0  0  0  0  0  0
   27.2307   14.7903    5.3262 C   0  0  0  0  0  0  0  0  0  0  0  0
   27.4069   15.4352    4.0789 O   0  0  0  0  0  0  0  0  0  0  0  0
   23.3743   16.5778    6.7267 C   0  0  2  0  0  0  0  0  0  0  0  0
   24.2424   17.2359    5.9040 O   0  0  0  0  0  0  0  0  0  0  0  0
   22.2732   15.9040    5.9622 C   0  0  1  0  0  0  0  0  0  0  0  0
   20.2861   18.9450    9.1997 N   0  0  0  0  0  0  0  0  0  0  0  0
   28.7175    9.2511   11.6269 O   0  0  0  0  0  0  0  0  0  0  0  0
   21.2824   15.2090    6.9748 C   0  0  2  0  0  0  0  0  0  0  0  0
   20.6713   16.1921    8.0325 C   0  0  1  0  0  0  0  0  0  0  0  0
   21.7485   16.8202    8.7612 C   0  0  1  0  0  0  0  0  0  0  0  0
   22.7167   17.4962    7.8090 O   0  0  0  0  0  0  0  0  0  0  0  0
   21.1743   17.8619    9.8186 C   0  0  0  0  0  0  0  0  0  0  0  0
   21.5449   16.8578    5.2231 N   0  0  0  0  0  0  0  0  0  0  0  0
   24.7857   20.4465   10.0520 O   0  0  0  0  0  0  0  0  0  0  0  0
   28.1105    9.1368   13.8128 C   0  0  0  0  0  0  0  0  0  0  0  0
   20.0790   17.0013    7.4739 O   0  0  0  0  0  0  0  0  0  0  0  0
   21.8705   14.4141    7.5627 O   0  0  0  0  0  0  0  0  0  0  0  0
   27.4085   11.0924   12.6800 C   0  0  0  0  0  0  0  0  0  0  0  0
   26.9937    8.9438   14.5949 C   0  0  0  0  0  0  0  0  0  0  0  0
   27.7053    9.5060   12.5984 C   0  0  1  0  0  0  0  0  0  0  0  0
   26.0834   20.0339   12.3426 F   0  0  0  0  0  0  0  0  0  0  0  0
  1  2  1  6  0  0  0
  1 10  1  0  0  0  0
  1  3  1  0  0  0  0
  3  4  1  6  0  0  0
  3  6  1  0  0  0  0
  5 46  2  0  0  0  0
  6 42  1  1  0  0  0
  6  8  1  0  0  0  0
  7 47  1  0  0  0  0
  8  9  1  0  0  0  0
  8 49  1  1  0  0  0
  9 10  1  0  0  0  0
  9 11  1  1  0  0  0
 11 12  1  0  0  0  0
 13 14  1  6  0  0  0
 13 15  1  0  0  0  0
 13 21  1  0  0  0  0
 14 46  1  0  0  0  0
 15 16  1  0  0  0  0
 16 17  1  6  0  0  0
 16 18  1  0  0  0  0
 18  2  1  1  0  0  0
 18 19  1  0  0  0  0
 19 20  1  6  0  0  0
 19 21  1  0  0  0  0
 21 22  1  1  0  0  0
 23 20  1  1  0  0  0
 23 24  1  0  0  0  0
 23 28  1  0  0  0  0
 24 25  1  1  0  0  0
 24 26  1  0  0  0  0
 26 27  1  0  0  0  0
 26 32  1  1  0  0  0
 27 28  1  0  0  0  0
 27 29  1  1  0  0  0
 29 30  1  0  0  0  0
 31 32  1  6  0  0  0
 31 33  1  0  0  0  0
 31 39  1  0  0  0  0
 33 36  1  0  0  0  0
 33 41  1  1  0  0  0
 34 40  1  0  0  0  0
 35 48  1  0  0  0  0
 36 37  1  0  0  0  0
 36 45  1  1  0  0  0
 37 38  1  0  0  0  0
 37 44  1  6  0  0  0
 38 39  1  0  0  0  0
 38 40  1  1  0  0  0
 43 47  1  0  0  0  0
 46 48  1  0  0  0  0
 48 43  1  1  0  0  0
M  END
>  <CHROM.1>
160.62022854,44.22255730,-112.12776968,-134.79760903,-22.36222402,159.68703063
-70.15704948,-51.44223700,-122.28281555,-56.68564832,63.93950514,-158.61002437
-91.51912146,24.93540403,15.50969753,9.77980843,-2.90495008,1.09863543,-2.45871634

>  <Name>
ligand

>  <RI>
0

>  <Rbt.Current_Directory>
/home/itssahil/PROJECTS/Mol_Feturizer/New_Systems/rnas/4PDQ

>  <Rbt.Executable>
rbdock ($Id: //depot/dev/client3/rdock/2013.1/src/exe/rbdock.cxx#4 $)

>  <Rbt.Library>
libRbt.so (2013.1, Build901 2013/11/27)

>  <Rbt.Parameter_File>
/export/apps/rDock/src/rDock_2013.1_src/data/scripts/dock_solv.prm

>  <Rbt.Receptor>
prm/blind_docking_60.prm

>  <SCORE>
43.0273

>  <SCORE.INTER>
18.9632

>  <SCORE.INTER.CONST>
1

>  <SCORE.INTER.POLAR>
0

>  <SCORE.INTER.ROT>
13

>  <SCORE.INTER.SOLV>
43.6976

>  <SCORE.INTER.VDW>
-14.1904

>  <SCORE.INTER.norm>
0.387005

>  <SCORE.INTRA>
20.9465

>  <SCORE.INTRA.DIHEDRAL>
-7.66307

>  <SCORE.INTRA.DIHEDRAL.0>
34.5115

>  <SCORE.INTRA.POLAR>
0

>  <SCORE.INTRA.POLAR.0>
0

>  <SCORE.INTRA.REPUL>
0

>  <SCORE.INTRA.REPUL.0>
0

>  <SCORE.INTRA.SOLV>
10.4278

>  <SCORE.INTRA.SOLV.lig_0>
-122.812

>  <SCORE.INTRA.VDW>
19.5641

>  <SCORE.INTRA.VDW.0>
-7.46208

>  <SCORE.INTRA.norm>
0.427479

>  <SCORE.RESTR>
3.11759

>  <SCORE.RESTR.CAVITY>
3.11759

>  <SCORE.RESTR.norm>
0.0636243

>  <SCORE.SYSTEM>
0

>  <SCORE.SYSTEM.CONST>
0

>  <SCORE.SYSTEM.DIHEDRAL>
0

>  <SCORE.SYSTEM.SOLV>
0

>  <SCORE.SYSTEM.norm>
0

>  <SCORE.heavy>
49

>  <SCORE.norm>
0.878107

>  <RMSD>
11.897

$$$$
ligand
 OpenBabel11021811513D
libRbt.so/2013.1/901 2013/11/27
 49 52  0  0  0  0  0  0  0  0999 V2000
   26.0271   12.4385   13.2918 C   0  0  2  0  0  0  0  0  0  0  0  0
   26.7742   13.5678   12.9476 O   0  0  0  0  0  0  0  0  0  0  0  0
   26.7243   11.6839   14.4841 C   0  0  2  0  0  0  0  0  0  0  0  0
   26.8379   12.6265   15.6721 N   0  0  0  0  0  0  0  0  0  0  0  0
   25.5453   17.6643    9.0282 O   0  0  0  0  0  0  0  0  0  0  0  0
   28.1108   11.1543   14.0494 C   0  0  2  0  0  0  0  0  0  0  0  0
   22.1255   18.8578    9.6893 N   0  0  0  0  0  0  0  0  0  0  0  0
   27.9724   10.2209   12.8365 C   0  0  2  0  0  0  0  0  0  0  0  0
   27.2705   10.9477   11.6122 C   0  0  2  0  0  0  0  0  0  0  0  0
   25.9307   11.4999   12.1025 O   0  0  0  0  0  0  0  0  0  0  0  0
   27.0836    9.9806   10.4074 C   0  0  0  0  0  0  0  0  0  0  0  0
   26.0608    9.0158   10.5999 N   0  0  0  0  0  0  0  0  0  0  0  0
   24.9761   17.3629   11.8672 C   0  0  2  0  0  0  0  0  0  0  0  0
   24.7225   18.6244   11.1113 N   0  0  0  0  0  0  0  0  0  0  0  0
   26.5656   17.2380   12.0523 C   0  0  0  0  0  0  0  0  0  0  0  0
   26.9228   15.9388   12.8664 C   0  0  2  0  0  0  0  0  0  0  0  0
   28.3782   15.8024   13.0253 N   0  0  0  0  0  0  0  0  0  0  0  0
   26.3979   14.6882   12.1333 C   0  0  2  0  0  0  0  0  0  0  0  0
   24.8317   14.7815   11.9305 C   0  0  2  0  0  0  0  0  0  0  0  0
   24.4302   13.5440   11.2328 O   0  0  0  0  0  0  0  0  0  0  0  0
   24.4981   16.0836   11.0392 C   0  0  1  0  0  0  0  0  0  0  0  0
   23.1175   16.1435   10.8656 O   0  0  0  0  0  0  0  0  0  0  0  0
   24.3869   13.3504    9.9586 C   0  0  1  0  0  0  0  0  0  0  0  0
   23.7053   12.0279    9.4993 C   0  0  2  0  0  0  0  0  0  0  0  0
   24.6879   11.0455    9.4025 O   0  0  0  0  0  0  0  0  0  0  0  0
   23.2446   12.4683    8.1720 C   0  0  1  0  0  0  0  0  0  0  0  0
   22.7450   13.9409    8.2949 C   0  0  2  0  0  0  0  0  0  0  0  0
   23.7176   14.4078    9.1973 O   0  0  0  0  0  0  0  0  0  0  0  0
   21.2759   14.1789    8.6471 C   0  0  0  0  0  0  0  0  0  0  0  0
   21.1123   15.5816    8.7375 O   0  0  0  0  0  0  0  0  0  0  0  0
   25.1696   13.4401    7.0001 C   0  0  2  0  0  0  0  0  0  0  0  0
   24.4169   12.3287    7.2486 O   0  0  0  0  0  0  0  0  0  0  0  0
   25.5847   13.5301    5.5610 C   0  0  1  0  0  0  0  0  0  0  0  0
   29.4973   13.5100    8.4436 N   0  0  0  0  0  0  0  0  0  0  0  0
   25.9097   20.6119    8.4033 O   0  0  0  0  0  0  0  0  0  0  0  0
   26.4908   14.8058    5.3567 C   0  0  2  0  0  0  0  0  0  0  0  0
   27.7589   14.8314    6.2788 C   0  0  1  0  0  0  0  0  0  0  0  0
   27.3339   14.7537    7.6568 C   0  0  1  0  0  0  0  0  0  0  0  0
   26.4597   13.5342    7.8799 O   0  0  0  0  0  0  0  0  0  0  0  0
   28.5937   14.7324    8.6293 C   0  0  0  0  0  0  0  0  0  0  0  0
   26.3408   12.3953    5.2048 N   0  0  0  0  0  0  0  0  0  0  0  0
   28.5783   10.5765   14.9177 O   0  0  0  0  0  0  0  0  0  0  0  0
   23.8175   19.8084    8.0334 C   0  0  0  0  0  0  0  0  0  0  0  0
   28.4013   13.9118    6.0355 O   0  0  0  0  0  0  0  0  0  0  0  0
   25.8675   15.7345    5.6252 O   0  0  0  0  0  0  0  0  0  0  0  0
   25.0725   18.6243    9.6531 C   0  0  0  0  0  0  0  0  0  0  0  0
   22.5896   19.7015    8.6474 C   0  0  0  0  0  0  0  0  0  0  0  0
   24.7298   20.0501    8.9739 C   0  0  1  0  0  0  0  0  0  0  0  0
   27.1988    9.0986   13.1816 F   0  0  0  0  0  0  0  0  0  0  0  0
  1  2  1  6  0  0  0
  1 10  1  0  0  0  0
  1  3  1  0  0  0  0
  3  4  1  1  0  0  0
  3  6  1  0  0  0  0
  5 46  2  0  0  0  0
  6 42  1  1  0  0  0
  6  8  1  0  0  0  0
  7 47  1  0  0  0  0
  8  9  1  0  0  0  0
  8 49  1  1  0  0  0
  9 10  1  0  0  0  0
  9 11  1  6  0  0  0
 11 12  1  0  0  0  0
 13 14  1  6  0  0  0
 13 15  1  0  0  0  0
 13 21  1  0  0  0  0
 14 46  1  0  0  0  0
 15 16  1  0  0  0  0
 16 17  1  6  0  0  0
 16 18  1  0  0  0  0
 18  2  1  1  0  0  0
 18 19  1  0  0  0  0
 19 20  1  6  0  0  0
 19 21  1  0  0  0  0
 21 22  1  1  0  0  0
 23 20  1  1  0  0  0
 23 24  1  0  0  0  0
 23 28  1  0  0  0  0
 24 25  1  6  0  0  0
 24 26  1  0  0  0  0
 26 27  1  0  0  0  0
 26 32  1  6  0  0  0
 27 28  1  0  0  0  0
 27 29  1  1  0  0  0
 29 30  1  0  0  0  0
 31 32  1  6  0  0  0
 31 33  1  0  0  0  0
 31 39  1  0  0  0  0
 33 36  1  0  0  0  0
 33 41  1  1  0  0  0
 34 40  1  0  0  0  0
 35 48  1  0  0  0  0
 36 37  1  0  0  0  0
 36 45  1  1  0  0  0
 37 38  1  0  0  0  0
 37 44  1  6  0  0  0
 38 39  1  0  0  0  0
 38 40  1  1  0  0  0
 43 47  1  0  0  0  0
 46 48  1  0  0  0  0
 48 43  1  6  0  0  0
M  END
>  <CHROM.1>
-165.54424121,137.20799994,73.28110353,72.84873354,-88.67373251,-170.36245226
-96.97260035,178.02440287,-139.82379358,-63.07670225,-56.40340975,-160.30700558
-59.29887839,25.63083625,14.30426723,9.99103278,0.17936986,-1.23603079,1.16824277

>  <Name>
ligand

>  <RI>
0

>  <Rbt.Current_Directory>
/home/itssahil/PROJECTS/Mol_Feturizer/New_Systems/rnas/4PDQ

>  <Rbt.Executable>
rbdock ($Id: //depot/dev/client3/rdock/2013.1/src/exe/rbdock.cxx#4 $)

>  <Rbt.Library>
libRbt.so (2013.1, Build901 2013/11/27)

>  <Rbt.Parameter_File>
/export/apps/rDock/src/rDock_2013.1_src/data/scripts/dock_solv.prm

>  <Rbt.Receptor>
prm/blind_docking_60.prm

>  <SCORE>
0.184695

>  <SCORE.INTER>
-5.03005

>  <SCORE.INTER.CONST>
1

>  <SCORE.INTER.POLAR>
0

>  <SCORE.INTER.ROT>
13

>  <SCORE.INTER.SOLV>
27.0163

>  <SCORE.INTER.VDW>
-24.6255

>  <SCORE.INTER.norm>
-0.102654

>  <SCORE.INTRA>
3.76843

>  <SCORE.INTRA.DIHEDRAL>
-9.0034

>  <SCORE.INTRA.DIHEDRAL.0>
34.5115

>  <SCORE.INTRA.POLAR>
0

>  <SCORE.INTRA.POLAR.0>
0

>  <SCORE.INTRA.REPUL>
0.175838

>  <SCORE.INTRA.REPUL.0>
0

>  <SCORE.INTRA.SOLV>
7.60086

>  <SCORE.INTRA.SOLV.lig_0>
-122.812

>  <SCORE.INTRA.VDW>
3.59051

>  <SCORE.INTRA.VDW.0>
-7.46208

>  <SCORE.INTRA.norm>
0.0769067

>  <SCORE.RESTR>
1.44632

>  <SCORE.RESTR.CAVITY>
1.44632

>  <SCORE.RESTR.norm>
0.0295167

>  <SCORE.SYSTEM>
0

>  <SCORE.SYSTEM.CONST>
0

>  <SCORE.SYSTEM.DIHEDRAL>
0

>  <SCORE.SYSTEM.SOLV>
0

>  <SCORE.SYSTEM.norm>
0

>  <SCORE.heavy>
49

>  <SCORE.norm>
0.00376929

>  <RMSD>
11.903

$$$$
ligand
 OpenBabel11021811513D
libRbt.so/2013.1/901 2013/11/27
 49 52  0  0  0  0  0  0  0  0999 V2000
   25.9485   12.4602   13.1552 C   0  0  2  0  0  0  0  0  0  0  0  0
   26.6274   13.6334   12.8166 O   0  0  0  0  0  0  0  0  0  0  0  0
   26.6435   11.7834   14.3945 C   0  0  2  0  0  0  0  0  0  0  0  0
   26.6356   12.7563   15.5632 N   0  0  0  0  0  0  0  0  0  0  0  0
   25.4144   17.8296    9.0585 O   0  0  0  0  0  0  0  0  0  0  0  0
   28.0826   11.3470   14.0333 C   0  0  2  0  0  0  0  0  0  0  0  0
   27.3692   22.1010    9.0658 N   0  0  0  0  0  0  0  0  0  0  0  0
   28.0663   10.3808   12.8383 C   0  0  2  0  0  0  0  0  0  0  0  0
   27.3700   11.0289   11.5676 C   0  0  2  0  0  0  0  0  0  0  0  0
   25.9733   11.4924   11.9858 O   0  0  0  0  0  0  0  0  0  0  0  0
   27.3073   10.0258   10.3795 C   0  0  0  0  0  0  0  0  0  0  0  0
   28.5761    9.5341    9.9767 N   0  0  0  0  0  0  0  0  0  0  0  0
   24.6914   17.3895   11.8438 C   0  0  2  0  0  0  0  0  0  0  0  0
   24.3654   18.6427   11.1021 N   0  0  0  0  0  0  0  0  0  0  0  0
   26.2917   17.2950   11.9251 C   0  0  0  0  0  0  0  0  0  0  0  0
   26.7257   16.0063   12.7183 C   0  0  2  0  0  0  0  0  0  0  0  0
   28.1906   15.8977   12.7823 N   0  0  0  0  0  0  0  0  0  0  0  0
   26.1778   14.7429   12.0251 C   0  0  2  0  0  0  0  0  0  0  0  0
   24.6002   14.8061   11.9247 C   0  0  2  0  0  0  0  0  0  0  0  0
   24.1774   13.5583   11.2586 O   0  0  0  0  0  0  0  0  0  0  0  0
   24.1847   16.0979   11.0529 C   0  0  1  0  0  0  0  0  0  0  0  0
   22.7948   16.1313   10.9696 O   0  0  0  0  0  0  0  0  0  0  0  0
   24.3437   13.2454   10.0187 C   0  0  1  0  0  0  0  0  0  0  0  0
   23.5681   11.9868    9.5301 C   0  0  2  0  0  0  0  0  0  0  0  0
   24.3918   10.8769    9.7021 O   0  0  0  0  0  0  0  0  0  0  0  0
   23.4348   12.3495    8.1093 C   0  0  1  0  0  0  0  0  0  0  0  0
   23.1490   13.8807    8.0233 C   0  0  2  0  0  0  0  0  0  0  0  0
   23.9955   14.3012    9.0650 O   0  0  0  0  0  0  0  0  0  0  0  0
   21.6931   14.3474    8.0580 C   0  0  0  0  0  0  0  0  0  0  0  0
   21.2575   14.1876    9.3950 O   0  0  0  0  0  0  0  0  0  0  0  0
   25.1118   12.6633    6.3450 C   0  0  2  0  0  0  0  0  0  0  0  0
   24.7240   11.9622    7.4502 O   0  0  0  0  0  0  0  0  0  0  0  0
   26.4342   12.1935    5.8141 C   0  0  1  0  0  0  0  0  0  0  0  0
   26.7874   16.9634    6.7318 N   0  0  0  0  0  0  0  0  0  0  0  0
   22.9805   20.3504    9.2117 O   0  0  0  0  0  0  0  0  0  0  0  0
   26.8436   13.0777    4.5729 C   0  0  2  0  0  0  0  0  0  0  0  0
   26.9116   14.6122    4.8882 C   0  0  1  0  0  0  0  0  0  0  0  0
   25.6265   15.0422    5.3875 C   0  0  1  0  0  0  0  0  0  0  0  0
   25.2092   14.2064    6.5827 O   0  0  0  0  0  0  0  0  0  0  0  0
   25.6623   16.5884    5.7630 C   0  0  0  0  0  0  0  0  0  0  0  0
   27.4296   12.3384    6.8013 N   0  0  0  0  0  0  0  0  0  0  0  0
   28.5507   10.8229   14.9347 O   0  0  0  0  0  0  0  0  0  0  0  0
   25.0996   21.0680    9.6045 C   0  0  0  0  0  0  0  0  0  0  0  0
   27.7020   14.7790    5.7037 O   0  0  0  0  0  0  0  0  0  0  0  0
   26.0437   12.9424    3.7574 O   0  0  0  0  0  0  0  0  0  0  0  0
   24.8092   18.7203    9.6718 C   0  0  0  0  0  0  0  0  0  0  0  0
   26.2394   21.2682    8.8584 C   0  0  0  0  0  0  0  0  0  0  0  0
   24.3733   20.1259    9.0042 C   0  0  1  0  0  0  0  0  0  0  0  0
   27.3603    9.2127   13.1765 F   0  0  0  0  0  0  0  0  0  0  0  0
  1  2  1  6  0  0  0
  1 10  1  0  0  0  0
  1  3  1  0  0  0  0
  3  4  1  1  0  0  0
  3  6  1  0  0  0  0
  5 46  2  0  0  0  0
  6 42  1  1  0  0  0
  6  8  1  0  0  0  0
  7 47  1  0  0  0  0
  8  9  1  0  0  0  0
  8 49  1  1  0  0  0
  9 10  1  0  0  0  0
  9 11  1  6  0  0  0
 11 12  1  0  0  0  0
 13 14  1  6  0  0  0
 13 15  1  0  0  0  0
 13 21  1  0  0  0  0
 14 46  1  0  0  0  0
 15 16  1  0  0  0  0
 16 17  1  6  0  0  0
 16 18  1  0  0  0  0
 18  2  1  1  0  0  0
 18 19  1  0  0  0  0
 19 20  1  6  0  0  0
 19 21  1  0  0  0  0
 21 22  1  1  0  0  0
 23 20  1  1  0  0  0
 23 24  1  0  0  0  0
 23 28  1  0  0  0  0
 24 25  1  6  0  0  0
 24 26  1  0  0  0  0
 26 27  1  0  0  0  0
 26 32  1  6  0  0  0
 27 28  1  0  0  0  0
 27 29  1  1  0  0  0
 29 30  1  0  0  0  0
 31 32  1  1  0  0  0
 31 33  1  0  0  0  0
 31 39  1  0  0  0  0
 33 36  1  0  0  0  0
 33 41  1  1  0  0  0
 34 40  1  0  0  0  0
 35 48  1  0  0  0  0
 36 37  1  0  0  0  0
 36 45  1  6  0  0  0
 37 38  1  0  0  0  0
 37 44  1  1  0  0  0
 38 39  1  0  0  0  0
 38 40  1  1  0  0  0
 43 47  1  0  0  0  0
 46 48  1  0  0  0  0
 48 43  1  1  0  0  0
M  END
>  <CHROM.1>
-161.37988891,140.87050099,-57.76095948,63.82057795,-71.27269323,-169.04705287
-152.18001154,73.59829235,178.44267967,-53.98810132,-176.85762454,-148.08842703
127.22619122,25.62100849,14.42544909,9.77531379,-0.08431132,-1.35400997,0.96054838

>  <Name>
ligand

>  <RI>
0

>  <Rbt.Current_Directory>
/home/itssahil/PROJECTS/Mol_Feturizer/New_Systems/rnas/4PDQ

>  <Rbt.Executable>
rbdock ($Id: //depot/dev/client3/rdock/2013.1/src/exe/rbdock.cxx#4 $)

>  <Rbt.Library>
libRbt.so (2013.1, Build901 2013/11/27)

>  <Rbt.Parameter_File>
/export/apps/rDock/src/rDock_2013.1_src/data/scripts/dock_solv.prm

>  <Rbt.Receptor>
prm/blind_docking_80.prm

>  <SCORE>
-0.837476

>  <SCORE.INTER>
-0.729899

>  <SCORE.INTER.CONST>
1

>  <SCORE.INTER.POLAR>
0

>  <SCORE.INTER.ROT>
13

>  <SCORE.INTER.SOLV>
36.7518

>  <SCORE.INTER.VDW>
-25.0039

>  <SCORE.INTER.norm>
-0.0148959

>  <SCORE.INTRA>
-4.92952

>  <SCORE.INTRA.DIHEDRAL>
-18.7043

>  <SCORE.INTRA.DIHEDRAL.0>
34.5115

>  <SCORE.INTRA.POLAR>
0

>  <SCORE.INTRA.POLAR.0>
0

>  <SCORE.INTRA.REPUL>
0.00700277

>  <SCORE.INTRA.REPUL.0>
0

>  <SCORE.INTRA.SOLV>
1.83912

>  <SCORE.INTRA.SOLV.lig_0>
-122.812

>  <SCORE.INTRA.VDW>
3.46806

>  <SCORE.INTRA.VDW.0>
-7.46208

>  <SCORE.INTRA.norm>
-0.100602

>  <SCORE.RESTR>
4.82194

>  <SCORE.RESTR.CAVITY>
4.82194

>  <SCORE.RESTR.norm>
0.098407

>  <SCORE.SYSTEM>
0

>  <SCORE.SYSTEM.CONST>
0

>  <SCORE.SYSTEM.DIHEDRAL>
0

>  <SCORE.SYSTEM.SOLV>
0

>  <SCORE.SYSTEM.norm>
0

>  <SCORE.heavy>
49

>  <SCORE.norm>
-0.0170913

>  <RMSD>
11.907

$$$$
ligand
 OpenBabel11021811513D
libRbt.so/2013.1/901 2013/11/27
 49 52  0  0  0  0  0  0  0  0999 V2000
   27.1154   12.9382   11.4984 C   0  0  2  0  0  0  0  0  0  0  0  0
   26.0799   13.8497   11.7197 O   0  0  0  0  0  0  0  0  0  0  0  0
   26.6817   11.8988   10.3990 C   0  0  2  0  0  0  0  0  0  0  0  0
   26.3463   12.6417    9.1152 N   0  0  0  0  0  0  0  0  0  0  0  0
   25.7235   19.0695    9.2326 O   0  0  0  0  0  0  0  0  0  0  0  0
   25.4814   11.0592   10.8951 C   0  0  2  0  0  0  0  0  0  0  0  0
   23.8080   21.3366    7.6415 N   0  0  0  0  0  0  0  0  0  0  0  0
   25.8375   10.3343   12.2025 C   0  0  2  0  0  0  0  0  0  0  0  0
   26.2824   11.3519   13.3367 C   0  0  2  0  0  0  0  0  0  0  0  0
   27.4331   12.1944   12.7831 O   0  0  0  0  0  0  0  0  0  0  0  0
   26.6946   10.6073   14.6395 C   0  0  0  0  0  0  0  0  0  0  0  0
   27.9093    9.8824   14.5258 N   0  0  0  0  0  0  0  0  0  0  0  0
   25.4982   18.1388   11.9817 C   0  0  2  0  0  0  0  0  0  0  0  0
   25.5580   19.5826   11.6090 N   0  0  0  0  0  0  0  0  0  0  0  0
   26.9622   17.5289   11.7339 C   0  0  0  0  0  0  0  0  0  0  0  0
   26.9956   16.0050   12.1275 C   0  0  2  0  0  0  0  0  0  0  0  0
   28.3269   15.4295   11.8858 N   0  0  0  0  0  0  0  0  0  0  0  0
   25.9691   15.2150   11.2913 C   0  0  2  0  0  0  0  0  0  0  0  0
   24.5132   15.7944   11.5097 C   0  0  2  0  0  0  0  0  0  0  0  0
   23.6115   14.9720   10.6792 O   0  0  0  0  0  0  0  0  0  0  0  0
   24.4898   17.3367   11.0381 C   0  0  1  0  0  0  0  0  0  0  0  0
   23.2000   17.8254   11.2305 O   0  0  0  0  0  0  0  0  0  0  0  0
   23.6907   14.7764    9.4071 C   0  0  1  0  0  0  0  0  0  0  0  0
   22.6802   13.7487    8.8176 C   0  0  2  0  0  0  0  0  0  0  0  0
   23.2807   12.4922    8.8353 O   0  0  0  0  0  0  0  0  0  0  0  0
   22.5905   14.2889    7.4508 C   0  0  1  0  0  0  0  0  0  0  0  0
   22.5999   15.8462    7.5421 C   0  0  2  0  0  0  0  0  0  0  0  0
   23.5312   15.9800    8.5876 O   0  0  0  0  0  0  0  0  0  0  0  0
   21.2604   16.5700    7.6863 C   0  0  0  0  0  0  0  0  0  0  0  0
   20.6712   16.0798    8.8759 O   0  0  0  0  0  0  0  0  0  0  0  0
   24.8140   14.5881    6.4557 C   0  0  2  0  0  0  0  0  0  0  0  0
   23.7692   13.7448    6.7018 O   0  0  0  0  0  0  0  0  0  0  0  0
   25.1919   14.6095    5.0039 C   0  0  1  0  0  0  0  0  0  0  0  0
   28.1793   14.6572    9.4696 N   0  0  0  0  0  0  0  0  0  0  0  0
   26.2194   21.7798    8.6009 O   0  0  0  0  0  0  0  0  0  0  0  0
   26.4338   15.5615    4.8005 C   0  0  2  0  0  0  0  0  0  0  0  0
   27.6785   15.1665    5.6685 C   0  0  1  0  0  0  0  0  0  0  0  0
   27.2930   15.1624    7.0603 C   0  0  1  0  0  0  0  0  0  0  0  0
   26.0990   14.2536    7.2827 O   0  0  0  0  0  0  0  0  0  0  0  0
   28.5173   14.7231    7.9774 C   0  0  0  0  0  0  0  0  0  0  0  0
   25.5589   13.3160    4.5815 N   0  0  0  0  0  0  0  0  0  0  0  0
   25.2120   10.2861   10.0974 O   0  0  0  0  0  0  0  0  0  0  0  0
   24.4637   21.9306   10.0343 C   0  0  0  0  0  0  0  0  0  0  0  0
   28.0057   14.1075    5.3703 O   0  0  0  0  0  0  0  0  0  0  0  0
   26.1284   16.6225    5.1233 O   0  0  0  0  0  0  0  0  0  0  0  0
   25.6781   19.9026   10.1489 C   0  0  0  0  0  0  0  0  0  0  0  0
   23.7038   21.3288    9.0564 C   0  0  0  0  0  0  0  0  0  0  0  0
   25.7180   21.4997    9.9061 C   0  0  1  0  0  0  0  0  0  0  0  0
   26.8966    9.4367   11.9794 F   0  0  0  0  0  0  0  0  0  0  0  0
  1  2  1  1  0  0  0
  1 10  1  0  0  0  0
  1  3  1  0  0  0  0
  3  4  1  6  0  0  0
  3  6  1  0  0  0  0
  5 46  2  0  0  0  0
  6 42  1  6  0  0  0
  6  8  1  0  0  0  0
  7 47  1  0  0  0  0
  8  9  1  0  0  0  0
  8 49  1  6  0  0  0
  9 10  1  0  0  0  0
  9 11  1  1  0  0  0
 11 12  1  0  0  0  0
 13 14  1  6  0  0  0
 13 15  1  0  0  0  0
 13 21  1  0  0  0  0
 14 46  1  0  0  0  0
 15 16  1  0  0  0  0
 16 17  1  6  0  0  0
 16 18  1  0  0  0  0
 18  2  1  1  0  0  0
 18 19  1  0  0  0  0
 19 20  1  6  0  0  0
 19 21  1  0  0  0  0
 21 22  1  1  0  0  0
 23 20  1  1  0  0  0
 23 24  1  0  0  0  0
 23 28  1  0  0  0  0
 24 25  1  6  0  0  0
 24 26  1  0  0  0  0
 26 27  1  0  0  0  0
 26 32  1  6  0  0  0
 27 28  1  0  0  0  0
 27 29  1  1  0  0  0
 29 30  1  0  0  0  0
 31 32  1  6  0  0  0
 31 33  1  0  0  0  0
 31 39  1  0  0  0  0
 33 36  1  0  0  0  0
 33 41  1  1  0  0  0
 34 40  1  0  0  0  0
 35 48  1  0  0  0  0
 36 37  1  0  0  0  0
 36 45  1  1  0  0  0
 37 38  1  0  0  0  0
 37 44  1  6  0  0  0
 38 39  1  0  0  0  0
 38 40  1  1  0  0  0
 43 47  1  0  0  0  0
 46 48  1  0  0  0  0
 48 43  1  6  0  0  0
M  END
>  <CHROM.1>
-104.73129966,-70.74421394,69.90544755,71.20747839,-57.03103160,174.32147723
-104.70181081,59.33691593,-127.67920315,-178.46766185,-58.63032284,57.27774185
-17.95003080,25.42736953,15.21247861,9.49772337,-0.50708072,-1.33198814,0.68898304

>  <Name>
ligand

>  <RI>
0

>  <Rbt.Current_Directory>
/home/itssahil/PROJECTS/Mol_Feturizer/New_Systems/rnas/4PDQ

>  <Rbt.Executable>
rbdock ($Id: //depot/dev/client3/rdock/2013.1/src/exe/rbdock.cxx#4 $)

>  <Rbt.Library>
libRbt.so (2013.1, Build901 2013/11/27)

>  <Rbt.Parameter_File>
/export/apps/rDock/src/rDock_2013.1_src/data/scripts/dock_solv.prm

>  <Rbt.Receptor>
prm/blind_docking_40.prm

>  <SCORE>
20.2113

>  <SCORE.INTER>
4.81437

>  <SCORE.INTER.CONST>
1

>  <SCORE.INTER.POLAR>
0

>  <SCORE.INTER.ROT>
13

>  <SCORE.INTER.SOLV>
32.1021

>  <SCORE.INTER.VDW>
-19.7578

>  <SCORE.INTER.norm>
0.0982524

>  <SCORE.INTRA>
15.1156

>  <SCORE.INTRA.DIHEDRAL>
-12.9697

>  <SCORE.INTRA.DIHEDRAL.0>
34.5115

>  <SCORE.INTRA.POLAR>
0

>  <SCORE.INTRA.POLAR.0>
0

>  <SCORE.INTRA.REPUL>
1.21992

>  <SCORE.INTRA.REPUL.0>
0

>  <SCORE.INTRA.SOLV>
18.2335

>  <SCORE.INTRA.SOLV.lig_0>
-122.812

>  <SCORE.INTRA.VDW>
6.38411

>  <SCORE.INTRA.VDW.0>
-7.46208

>  <SCORE.INTRA.norm>
0.308482

>  <SCORE.RESTR>
0.281275

>  <SCORE.RESTR.CAVITY>
0.281275

>  <SCORE.RESTR.norm>
0.00574031

>  <SCORE.SYSTEM>
0

>  <SCORE.SYSTEM.CONST>
0

>  <SCORE.SYSTEM.DIHEDRAL>
0

>  <SCORE.SYSTEM.SOLV>
0

>  <SCORE.SYSTEM.norm>
0

>  <SCORE.heavy>
49

>  <SCORE.norm>
0.412475

>  <RMSD>
11.917

$$$$
ligand
 OpenBabel11021811513D
libRbt.so/2013.1/901 2013/11/27
 49 52  0  0  0  0  0  0  0  0999 V2000
   27.5664   12.5042   12.3448 C   0  0  2  0  0  0  0  0  0  0  0  0
   26.6020   13.4587   12.6777 O   0  0  0  0  0  0  0  0  0  0  0  0
   26.9316   11.4137   11.4041 C   0  0  2  0  0  0  0  0  0  0  0  0
   26.3975   12.0872   10.1497 N   0  0  0  0  0  0  0  0  0  0  0  0
   25.3614   17.7114    9.0058 O   0  0  0  0  0  0  0  0  0  0  0  0
   25.8167   10.6428   12.1488 C   0  0  2  0  0  0  0  0  0  0  0  0
   26.7320   21.8770    8.6537 N   0  0  0  0  0  0  0  0  0  0  0  0
   26.3755    9.9881   13.4219 C   0  0  2  0  0  0  0  0  0  0  0  0
   27.0270   11.0586   14.3963 C   0  0  2  0  0  0  0  0  0  0  0  0
   28.0832   11.8304   13.6032 O   0  0  0  0  0  0  0  0  0  0  0  0
   27.6399   10.3822   15.6567 C   0  0  0  0  0  0  0  0  0  0  0  0
   28.9159   10.8888   16.0160 N   0  0  0  0  0  0  0  0  0  0  0  0
   24.7625   17.2914   11.8235 C   0  0  2  0  0  0  0  0  0  0  0  0
   24.4312   18.5513   11.0956 N   0  0  0  0  0  0  0  0  0  0  0  0
   26.3578   17.1234   11.7692 C   0  0  0  0  0  0  0  0  0  0  0  0
   26.7993   15.8234   12.5396 C   0  0  2  0  0  0  0  0  0  0  0  0
   28.2578   15.6475   12.4798 N   0  0  0  0  0  0  0  0  0  0  0  0
   26.1370   14.5804   11.9126 C   0  0  2  0  0  0  0  0  0  0  0  0
   24.5611   14.7159   11.9464 C   0  0  2  0  0  0  0  0  0  0  0  0
   24.0264   13.4828   11.3356 O   0  0  0  0  0  0  0  0  0  0  0  0
   24.1314   16.0173   11.0960 C   0  0  1  0  0  0  0  0  0  0  0  0
   22.7425   16.1145   11.1313 O   0  0  0  0  0  0  0  0  0  0  0  0
   23.9353   13.2163   10.0772 C   0  0  1  0  0  0  0  0  0  0  0  0
   23.0615   11.9809    9.7101 C   0  0  2  0  0  0  0  0  0  0  0  0
   23.8891   10.8613    9.6721 O   0  0  0  0  0  0  0  0  0  0  0  0
   22.6490   12.3978    8.3596 C   0  0  1  0  0  0  0  0  0  0  0  0
   22.3708   13.9325    8.3884 C   0  0  2  0  0  0  0  0  0  0  0  0
   23.4151   14.3092    9.2522 O   0  0  0  0  0  0  0  0  0  0  0  0
   20.9577   14.4047    8.7333 C   0  0  0  0  0  0  0  0  0  0  0  0
   20.8737   15.7504    8.3036 O   0  0  0  0  0  0  0  0  0  0  0  0
   24.5688   13.0344    6.9695 C   0  0  2  0  0  0  0  0  0  0  0  0
   23.7738   12.0295    7.4402 O   0  0  0  0  0  0  0  0  0  0  0  0
   24.9739   12.8118    5.5420 C   0  0  1  0  0  0  0  0  0  0  0  0
   28.9304   13.2298    8.3349 N   0  0  0  0  0  0  0  0  0  0  0  0
   22.9721   20.0370    8.7363 O   0  0  0  0  0  0  0  0  0  0  0  0
   25.9293   13.9800    5.0810 C   0  0  2  0  0  0  0  0  0  0  0  0
   27.2057   14.1401    5.9776 C   0  0  1  0  0  0  0  0  0  0  0  0
   26.7908   14.3628    7.3428 C   0  0  1  0  0  0  0  0  0  0  0  0
   25.8697   13.2520    7.8107 O   0  0  0  0  0  0  0  0  0  0  0  0
   28.0576   14.4876    8.2981 C   0  0  0  0  0  0  0  0  0  0  0  0
   25.6798   11.5977    5.4243 N   0  0  0  0  0  0  0  0  0  0  0  0
   25.4003    9.8314   11.4600 O   0  0  0  0  0  0  0  0  0  0  0  0
   24.6935   20.9681    9.8894 C   0  0  0  0  0  0  0  0  0  0  0  0
   27.8080   13.1643    5.9265 O   0  0  0  0  0  0  0  0  0  0  0  0
   25.3468   14.9692    5.1548 O   0  0  0  0  0  0  0  0  0  0  0  0
   24.8078   18.6169    9.6455 C   0  0  0  0  0  0  0  0  0  0  0  0
   26.0259   21.2755    9.7272 C   0  0  0  0  0  0  0  0  0  0  0  0
   24.3741   20.0319    8.9967 C   0  0  1  0  0  0  0  0  0  0  0  0
   27.3633    9.0466   13.0824 F   0  0  0  0  0  0  0  0  0  0  0  0
  1  2  1  1  0  0  0
  1 10  1  0  0  0  0
  1  3  1  0  0  0  0
  3  4  1  6  0  0  0
  3  6  1  0  0  0  0
  5 46  2  0  0  0  0
  6 42  1  6  0  0  0
  6  8  1  0  0  0  0
  7 47  1  0  0  0  0
  8  9  1  0  0  0  0
  8 49  1  6  0  0  0
  9 10  1  0  0  0  0
  9 11  1  1  0  0  0
 11 12  1  0  0  0  0
 13 14  1  6  0  0  0
 13 15  1  0  0  0  0
 13 21  1  0  0  0  0
 14 46  1  0  0  0  0
 15 16  1  0  0  0  0
 16 17  1  6  0  0  0
 16 18  1  0  0  0  0
 18  2  1  1  0  0  0
 18 19  1  0  0  0  0
 19 20  1  6  0  0  0
 19 21  1  0  0  0  0
 21 22  1  1  0  0  0
 23 20  1  1  0  0  0
 23 24  1  0  0  0  0
 23 28  1  0  0  0  0
 24 25  1  6  0  0  0
 24 26  1  0  0  0  0
 26 27  1  0  0  0  0
 26 32  1  6  0  0  0
 27 28  1  0  0  0  0
 27 29  1  1  0  0  0
 29 30  1  0  0  0  0
 31 32  1  1  0  0  0
 31 33  1  0  0  0  0
 31 39  1  0  0  0  0
 33 36  1  0  0  0  0
 33 41  1  1  0  0  0
 34 40  1  0  0  0  0
 35 48  1  0  0  0  0
 36 37  1  0  0  0  0
 36 45  1  1  0  0  0
 37 38  1  0  0  0  0
 37 44  1  1  0  0  0
 38 39  1  0  0  0  0
 38 40  1  1  0  0  0
 43 47  1  0  0  0  0
 46 48  1  0  0  0  0
 48 43  1  1  0  0  0
M  END
>  <CHROM.1>
-80.50983869,-103.81734226,136.48416634,61.24728465,-79.70307515,-167.48618585
-105.69262043,-162.80076037,-142.16096776,-61.46258059,65.35572445,-157.14282093
101.74994818,25.44751346,14.26204961,9.99855149,-0.68715563,-1.22707952,0.34939920

>  <Name>
ligand

>  <RI>
0

>  <Rbt.Current_Directory>
/home/itssahil/PROJECTS/Mol_Feturizer/New_Systems/rnas/4PDQ

>  <Rbt.Executable>
rbdock ($Id: //depot/dev/client3/rdock/2013.1/src/exe/rbdock.cxx#4 $)

>  <Rbt.Library>
libRbt.so (2013.1, Build901 2013/11/27)

>  <Rbt.Parameter_File>
/export/apps/rDock/src/rDock_2013.1_src/data/scripts/dock_solv.prm

>  <Rbt.Receptor>
prm/blind_docking_80.prm

>  <SCORE>
24.8486

>  <SCORE.INTER>
9.79346

>  <SCORE.INTER.CONST>
1

>  <SCORE.INTER.POLAR>
0

>  <SCORE.INTER.ROT>
13

>  <SCORE.INTER.SOLV>
30.9397

>  <SCORE.INTER.VDW>
-16.0509

>  <SCORE.INTER.norm>
0.199867

>  <SCORE.INTRA>
10.8178

>  <SCORE.INTRA.DIHEDRAL>
-4.61916

>  <SCORE.INTRA.DIHEDRAL.0>
34.5115

>  <SCORE.INTRA.POLAR>
0

>  <SCORE.INTRA.POLAR.0>
0

>  <SCORE.INTRA.REPUL>
1

>  <SCORE.INTRA.REPUL.0>
0

>  <SCORE.INTRA.SOLV>
10.0254

>  <SCORE.INTRA.SOLV.lig_0>
-122.812

>  <SCORE.INTRA.VDW>
3.11467

>  <SCORE.INTRA.VDW.0>
-7.46208

>  <SCORE.INTRA.norm>
0.220771

>  <SCORE.RESTR>
4.23732

>  <SCORE.RESTR.CAVITY>
4.23732

>  <SCORE.RESTR.norm>
0.0864759

>  <SCORE.SYSTEM>
0

>  <SCORE.SYSTEM.CONST>
0

>  <SCORE.SYSTEM.DIHEDRAL>
0

>  <SCORE.SYSTEM.SOLV>
0

>  <SCORE.SYSTEM.norm>
0

>  <SCORE.heavy>
49

>  <SCORE.norm>
0.507113

>  <RMSD>
11.925

$$$$
ligand
 OpenBabel11021811513D
libRbt.so/2013.1/901 2013/11/27
 49 52  0  0  0  0  0  0  0  0999 V2000
   26.5650   12.6045   13.9106 C   0  0  2  0  0  0  0  0  0  0  0  0
   27.2911   13.4695   13.0881 O   0  0  0  0  0  0  0  0  0  0  0  0
   27.5503   11.8076   14.8440 C   0  0  2  0  0  0  0  0  0  0  0  0
   28.3476   12.7929   15.6841 N   0  0  0  0  0  0  0  0  0  0  0  0
   25.7281   17.4440    9.1166 O   0  0  0  0  0  0  0  0  0  0  0  0
   28.4795   10.9041   14.0001 C   0  0  2  0  0  0  0  0  0  0  0  0
   24.3530   19.3909    5.8347 N   0  0  0  0  0  0  0  0  0  0  0  0
   27.6512    9.9316   13.1459 C   0  0  2  0  0  0  0  0  0  0  0  0
   26.6426   10.7001   12.1910 C   0  0  2  0  0  0  0  0  0  0  0  0
   25.7829   11.6184   13.0617 O   0  0  0  0  0  0  0  0  0  0  0  0
   25.7687    9.7083   11.3699 C   0  0  0  0  0  0  0  0  0  0  0  0
   26.5074    8.9185   10.4509 N   0  0  0  0  0  0  0  0  0  0  0  0
   24.8285   16.8019   11.8098 C   0  0  2  0  0  0  0  0  0  0  0  0
   24.4203   18.0405   11.0843 N   0  0  0  0  0  0  0  0  0  0  0  0
   26.3120   17.0528   12.3691 C   0  0  0  0  0  0  0  0  0  0  0  0
   26.8146   15.7967   13.1740 C   0  0  2  0  0  0  0  0  0  0  0  0
   28.1811   16.0065   13.6747 N   0  0  0  0  0  0  0  0  0  0  0  0
   26.8184   14.5488   12.2686 C   0  0  2  0  0  0  0  0  0  0  0  0
   25.3691   14.2753   11.6962 C   0  0  2  0  0  0  0  0  0  0  0  0
   25.4773   13.0664   10.8558 O   0  0  0  0  0  0  0  0  0  0  0  0
   24.9049   15.5490   10.8223 C   0  0  1  0  0  0  0  0  0  0  0  0
   23.6323   15.2858   10.3215 O   0  0  0  0  0  0  0  0  0  0  0  0
   24.9842   12.8939    9.6769 C   0  0  1  0  0  0  0  0  0  0  0  0
   25.5068   11.6486    8.9018 C   0  0  2  0  0  0  0  0  0  0  0  0
   26.6138   12.0387    8.1519 O   0  0  0  0  0  0  0  0  0  0  0  0
   24.3297   11.4108    8.0499 C   0  0  1  0  0  0  0  0  0  0  0  0
   23.0509   11.6798    8.9017 C   0  0  2  0  0  0  0  0  0  0  0  0
   23.5241   12.7864    9.6296 O   0  0  0  0  0  0  0  0  0  0  0  0
   22.4490   10.5154    9.6897 C   0  0  0  0  0  0  0  0  0  0  0  0
   23.2227    9.3756    9.3655 O   0  0  0  0  0  0  0  0  0  0  0  0
   24.5547   13.6796    7.1414 C   0  0  2  0  0  0  0  0  0  0  0  0
   24.4559   12.3429    6.8830 O   0  0  0  0  0  0  0  0  0  0  0  0
   23.4592   14.4643    6.4816 C   0  0  1  0  0  0  0  0  0  0  0  0
   27.6417   17.7993    6.3412 N   0  0  0  0  0  0  0  0  0  0  0  0
   24.3145   20.6103   10.0516 O   0  0  0  0  0  0  0  0  0  0  0  0
   23.6639   16.0005    6.7789 C   0  0  2  0  0  0  0  0  0  0  0  0
   25.0602   16.5492    6.3229 C   0  0  1  0  0  0  0  0  0  0  0  0
   26.0967   15.7859    6.9776 C   0  0  1  0  0  0  0  0  0  0  0  0
   25.9221   14.3035    6.7074 O   0  0  0  0  0  0  0  0  0  0  0  0
   27.5350   16.2809    6.5093 C   0  0  0  0  0  0  0  0  0  0  0  0
   23.5064   14.2793    5.0853 N   0  0  0  0  0  0  0  0  0  0  0  0
   29.1561   10.3068   14.7014 O   0  0  0  0  0  0  0  0  0  0  0  0
   25.3246   19.9587    8.1242 C   0  0  0  0  0  0  0  0  0  0  0  0
   25.1524   16.4043    5.1880 O   0  0  0  0  0  0  0  0  0  0  0  0
   23.6026   16.1563    7.9170 O   0  0  0  0  0  0  0  0  0  0  0  0
   24.9717   18.2313    9.7029 C   0  0  0  0  0  0  0  0  0  0  0  0
   25.1193   19.1770    7.0094 C   0  0  0  0  0  0  0  0  0  0  0  0
   24.4305   19.6053    9.0466 C   0  0  1  0  0  0  0  0  0  0  0  0
   26.9035    9.0802   13.9785 F   0  0  0  0  0  0  0  0  0  0  0  0
  1  2  1  6  0  0  0
  1 10  1  0  0  0  0
  1  3  1  0  0  0  0
  3  4  1  6  0  0  0
  3  6  1  0  0  0  0
  5 46  2  0  0  0  0
  6 42  1  1  0  0  0
  6  8  1  0  0  0  0
  7 47  1  0  0  0  0
  8  9  1  0  0  0  0
  8 49  1  1  0  0  0
  9 10  1  0  0  0  0
  9 11  1  1  0  0  0
 11 12  1  0  0  0  0
 13 14  1  6  0  0  0
 13 15  1  0  0  0  0
 13 21  1  0  0  0  0
 14 46  1  0  0  0  0
 15 16  1  0  0  0  0
 16 17  1  6  0  0  0
 16 18  1  0  0  0  0
 18  2  1  1  0  0  0
 18 19  1  0  0  0  0
 19 20  1  6  0  0  0
 19 21  1  0  0  0  0
 21 22  1  1  0  0  0
 23 20  1  1  0  0  0
 23 24  1  0  0  0  0
 23 28  1  0  0  0  0
 24 25  1  6  0  0  0
 24 26  1  0  0  0  0
 26 27  1  0  0  0  0
 26 32  1  6  0  0  0
 27 28  1  0  0  0  0
 27 29  1  1  0  0  0
 29 30  1  0  0  0  0
 31 32  1  6  0  0  0
 31 33  1  0  0  0  0
 31 39  1  0  0  0  0
 33 36  1  0  0  0  0
 33 41  1  6  0  0  0
 34 40  1  0  0  0  0
 35 48  1  0  0  0  0
 36 37  1  0  0  0  0
 36 45  1  1  0  0  0
 37 38  1  0  0  0  0
 37 44  1  6  0  0  0
 38 39  1  0  0  0  0
 38 40  1  6  0  0  0
 43 47  1  0  0  0  0
 46 48  1  0  0  0  0
 48 43  1  6  0  0  0
M  END
>  <CHROM.1>
-167.34105832,88.56272976,-65.10488543,78.42146290,-134.31738894,167.25276001
-57.31956939,-3.37160738,-121.68961727,39.04028609,93.59793567,-162.68512603
-145.09806492,25.55129127,14.21805742,9.96793846,-0.97496210,-1.16268139
-0.15193848

>  <Name>
ligand

>  <RI>
0

>  <Rbt.Current_Directory>
/home/itssahil/PROJECTS/Mol_Feturizer/New_Systems/rnas/4PDQ

>  <Rbt.Executable>
rbdock ($Id: //depot/dev/client3/rdock/2013.1/src/exe/rbdock.cxx#4 $)

>  <Rbt.Library>
libRbt.so (2013.1, Build901 2013/11/27)

>  <Rbt.Parameter_File>
/export/apps/rDock/src/rDock_2013.1_src/data/scripts/dock_solv.prm

>  <Rbt.Receptor>
prm/blind_docking_80.prm

>  <SCORE>
24.4176

>  <SCORE.INTER>
8.80067

>  <SCORE.INTER.CONST>
1

>  <SCORE.INTER.POLAR>
0

>  <SCORE.INTER.ROT>
13

>  <SCORE.INTER.SOLV>
31.881

>  <SCORE.INTER.VDW>
-17.0266

>  <SCORE.INTER.norm>
0.179605

>  <SCORE.INTRA>
12.6154

>  <SCORE.INTRA.DIHEDRAL>
-3.50488

>  <SCORE.INTRA.DIHEDRAL.0>
34.5115

>  <SCORE.INTRA.POLAR>
0

>  <SCORE.INTRA.POLAR.0>
0

>  <SCORE.INTRA.REPUL>
0

>  <SCORE.INTRA.REPUL.0>
0

>  <SCORE.INTRA.SOLV>
12.4995

>  <SCORE.INTRA.SOLV.lig_0>
-122.812

>  <SCORE.INTRA.VDW>
8.11806

>  <SCORE.INTRA.VDW.0>
-7.46208

>  <SCORE.INTRA.norm>
0.257456

>  <SCORE.RESTR>
3.00162

>  <SCORE.RESTR.CAVITY>
3.00162

>  <SCORE.RESTR.norm>
0.0612575

>  <SCORE.SYSTEM>
0

>  <SCORE.SYSTEM.CONST>
0

>  <SCORE.SYSTEM.DIHEDRAL>
0

>  <SCORE.SYSTEM.SOLV>
0

>  <SCORE.SYSTEM.norm>
0

>  <SCORE.heavy>
49

>  <SCORE.norm>
0.498319

>  <RMSD>
11.930

$$$$
ligand
 OpenBabel11021811513D
libRbt.so/2013.1/901 2013/11/27
 49 52  0  0  0  0  0  0  0  0999 V2000
   25.6035   12.3672   13.2880 C   0  0  2  0  0  0  0  0  0  0  0  0
   26.2418   13.6093   13.3309 O   0  0  0  0  0  0  0  0  0  0  0  0
   26.1396   11.4543   14.4526 C   0  0  2  0  0  0  0  0  0  0  0  0
   25.8765   12.1396   15.7844 N   0  0  0  0  0  0  0  0  0  0  0  0
   23.0115   19.0553   10.7890 O   0  0  0  0  0  0  0  0  0  0  0  0
   27.6453   11.1602   14.2571 C   0  0  2  0  0  0  0  0  0  0  0  0
   24.3343   19.0606    6.2183 N   0  0  0  0  0  0  0  0  0  0  0  0
   27.8881   10.4866   12.8974 C   0  0  2  0  0  0  0  0  0  0  0  0
   27.3579   11.3784   11.6961 C   0  0  2  0  0  0  0  0  0  0  0  0
   25.8830   11.6877   11.9595 O   0  0  0  0  0  0  0  0  0  0  0  0
   27.5567   10.6657   10.3271 C   0  0  0  0  0  0  0  0  0  0  0  0
   28.6213    9.7272   10.3185 N   0  0  0  0  0  0  0  0  0  0  0  0
   25.3180   17.4830   11.6152 C   0  0  2  0  0  0  0  0  0  0  0  0
   25.4180   18.6776   10.7264 N   0  0  0  0  0  0  0  0  0  0  0  0
   26.8036   17.1510   12.1244 C   0  0  0  0  0  0  0  0  0  0  0  0
   26.7870   15.9107   13.0937 C   0  0  2  0  0  0  0  0  0  0  0  0
   28.1456   15.5839   13.5513 N   0  0  0  0  0  0  0  0  0  0  0  0
   26.2108   14.6764   12.3717 C   0  0  2  0  0  0  0  0  0  0  0  0
   24.7459   14.9720   11.8524 C   0  0  2  0  0  0  0  0  0  0  0  0
   24.2849   13.7367   11.1886 O   0  0  0  0  0  0  0  0  0  0  0  0
   24.8002   16.2034   10.8121 C   0  0  1  0  0  0  0  0  0  0  0  0
   23.5044   16.4425   10.3613 O   0  0  0  0  0  0  0  0  0  0  0  0
   24.2827   13.4900    9.9229 C   0  0  1  0  0  0  0  0  0  0  0  0
   23.6447   12.1339    9.5003 C   0  0  2  0  0  0  0  0  0  0  0  0
   24.6516   11.1720    9.4719 O   0  0  0  0  0  0  0  0  0  0  0  0
   23.2126   12.5084    8.1434 C   0  0  1  0  0  0  0  0  0  0  0  0
   22.6764   13.9726    8.1909 C   0  0  2  0  0  0  0  0  0  0  0  0
   23.6118   14.4991    9.0998 O   0  0  0  0  0  0  0  0  0  0  0  0
   21.1928   14.1897    8.4919 C   0  0  0  0  0  0  0  0  0  0  0  0
   20.9204   15.5443    8.1856 O   0  0  0  0  0  0  0  0  0  0  0  0
   25.2502   13.4305    7.1327 C   0  0  2  0  0  0  0  0  0  0  0  0
   24.4138   12.3591    7.2597 O   0  0  0  0  0  0  0  0  0  0  0  0
   25.5270   13.7630    5.6961 C   0  0  1  0  0  0  0  0  0  0  0  0
   29.7866   15.3296    8.8497 N   0  0  0  0  0  0  0  0  0  0  0  0
   25.1760   21.6325   10.1343 O   0  0  0  0  0  0  0  0  0  0  0  0
   26.5367   14.9735    5.6244 C   0  0  2  0  0  0  0  0  0  0  0  0
   27.8859   14.7133    6.3798 C   0  0  1  0  0  0  0  0  0  0  0  0
   27.5946   14.4055    7.7604 C   0  0  1  0  0  0  0  0  0  0  0  0
   26.6241   13.2436    7.8569 O   0  0  0  0  0  0  0  0  0  0  0  0
   28.9358   14.0904    8.5572 C   0  0  0  0  0  0  0  0  0  0  0  0
   26.1209   12.6596    5.0510 N   0  0  0  0  0  0  0  0  0  0  0  0
   28.0005   10.4639   15.0909 O   0  0  0  0  0  0  0  0  0  0  0  0
   25.0825   20.1967    8.3765 C   0  0  0  0  0  0  0  0  0  0  0  0
   28.4012   13.8079    5.8979 O   0  0  0  0  0  0  0  0  0  0  0  0
   26.0438   15.8814    6.1303 O   0  0  0  0  0  0  0  0  0  0  0  0
   24.1377   19.3806   10.3869 C   0  0  0  0  0  0  0  0  0  0  0  0
   24.1686   19.7199    7.4636 C   0  0  0  0  0  0  0  0  0  0  0  0
   24.4110   20.6553    9.4320 C   0  0  1  0  0  0  0  0  0  0  0  0
   27.2229    9.2486   12.8505 F   0  0  0  0  0  0  0  0  0  0  0  0
  1  2  1  6  0  0  0
  1 10  1  0  0  0  0
  1  3  1  0  0  0  0
  3  4  1  1  0  0  0
  3  6  1  0  0  0  0
  5 46  2  0  0  0  0
  6 42  1  1  0  0  0
  6  8  1  0  0  0  0
  7 47  1  0  0  0  0
  8  9  1  0  0  0  0
  8 49  1  1  0  0  0
  9 10  1  0  0  0  0
  9 11  1  6  0  0  0
 11 12  1  0  0  0  0
 13 14  1  6  0  0  0
 13 15  1  0  0  0  0
 13 21  1  0  0  0  0
 14 46  1  0  0  0  0
 15 16  1  0  0  0  0
 16 17  1  6  0  0  0
 16 18  1  0  0  0  0
 18  2  1  1  0  0  0
 18 19  1  0  0  0  0
 19 20  1  6  0  0  0
 19 21  1  0  0  0  0
 21 22  1  1  0  0  0
 23 20  1  1  0  0  0
 23 24  1  0  0  0  0
 23 28  1  0  0  0  0
 24 25  1  6  0  0  0
 24 26  1  0  0  0  0
 26 27  1  0  0  0  0
 26 32  1  6  0  0  0
 27 28  1  0  0  0  0
 27 29  1  1  0  0  0
 29 30  1  0  0  0  0
 31 32  1  6  0  0  0
 31 33  1  0  0  0  0
 31 39  1  0  0  0  0
 33 36  1  0  0  0  0
 33 41  1  6  0  0  0
 34 40  1  0  0  0  0
 35 48  1  0  0  0  0
 36 37  1  0  0  0  0
 36 45  1  1  0  0  0
 37 38  1  0  0  0  0
 37 44  1  6  0  0  0
 38 39  1  0  0  0  0
 38 40  1  1  0  0  0
 43 47  1  0  0  0  0
 46 48  1  0  0  0  0
 48 43  1  6  0  0  0
M  END
>  <CHROM.1>
170.44324074,165.93362226,-25.98504119,-165.80279115,-98.94750989,-175.95042462
-88.19841901,-167.38547094,-128.91766471,73.48450484,-175.85606038,-155.67629981
114.06689815,25.65792443,14.47500571,10.00312139,0.22179192,-1.26967679,1.24018029

>  <Name>
ligand

>  <RI>
0

>  <Rbt.Current_Directory>
/home/itssahil/PROJECTS/Mol_Feturizer/New_Systems/rnas/4PDQ

>  <Rbt.Executable>
rbdock ($Id: //depot/dev/client3/rdock/2013.1/src/exe/rbdock.cxx#4 $)

>  <Rbt.Library>
libRbt.so (2013.1, Build901 2013/11/27)

>  <Rbt.Parameter_File>
/export/apps/rDock/src/rDock_2013.1_src/data/scripts/dock_solv.prm

>  <Rbt.Receptor>
prm/blind_docking_80.prm

>  <SCORE>
1.90548

>  <SCORE.INTER>
-0.838734

>  <SCORE.INTER.CONST>
1

>  <SCORE.INTER.POLAR>
0

>  <SCORE.INTER.ROT>
13

>  <SCORE.INTER.SOLV>
36.08

>  <SCORE.INTER.VDW>
-24.8525

>  <SCORE.INTER.norm>
-0.017117

>  <SCORE.INTRA>
-1.09766

>  <SCORE.INTRA.DIHEDRAL>
-10.508

>  <SCORE.INTRA.DIHEDRAL.0>
34.5115

>  <SCORE.INTRA.POLAR>
0

>  <SCORE.INTRA.POLAR.0>
0

>  <SCORE.INTRA.REPUL>
0

>  <SCORE.INTRA.REPUL.0>
0

>  <SCORE.INTRA.SOLV>
-1.06591

>  <SCORE.INTRA.SOLV.lig_0>
-122.812

>  <SCORE.INTRA.VDW>
4.68929

>  <SCORE.INTRA.VDW.0>
-7.46208

>  <SCORE.INTRA.norm>
-0.0224011

>  <SCORE.RESTR>
3.84187

>  <SCORE.RESTR.CAVITY>
3.84187

>  <SCORE.RESTR.norm>
0.0784055

>  <SCORE.SYSTEM>
0

>  <SCORE.SYSTEM.CONST>
0

>  <SCORE.SYSTEM.DIHEDRAL>
0

>  <SCORE.SYSTEM.SOLV>
0

>  <SCORE.SYSTEM.norm>
0

>  <SCORE.heavy>
49

>  <SCORE.norm>
0.0388873

>  <RMSD>
11.944

$$$$
ligand
 OpenBabel11021811513D
libRbt.so/2013.1/901 2013/11/27
 49 52  0  0  0  0  0  0  0  0999 V2000
   27.5028   12.5984   12.4133 C   0  0  2  0  0  0  0  0  0  0  0  0
   26.4811   13.5189   12.6601 O   0  0  0  0  0  0  0  0  0  0  0  0
   26.9747   11.4617   11.4613 C   0  0  2  0  0  0  0  0  0  0  0  0
   26.4965   12.0844   10.1590 N   0  0  0  0  0  0  0  0  0  0  0  0
   25.5970   17.8900    9.0250 O   0  0  0  0  0  0  0  0  0  0  0  0
   25.8458   10.6616   12.1522 C   0  0  2  0  0  0  0  0  0  0  0  0
   26.5351   21.0256   11.7105 N   0  0  0  0  0  0  0  0  0  0  0  0
   26.3468   10.0593   13.4742 C   0  0  2  0  0  0  0  0  0  0  0  0
   26.8900   11.1773   14.4614 C   0  0  2  0  0  0  0  0  0  0  0  0
   27.9635   11.9748   13.7185 O   0  0  0  0  0  0  0  0  0  0  0  0
   27.4465   10.5552   15.7748 C   0  0  0  0  0  0  0  0  0  0  0  0
   28.7939   10.1204   15.6772 N   0  0  0  0  0  0  0  0  0  0  0  0
   24.8481   17.4432   11.8024 C   0  0  2  0  0  0  0  0  0  0  0  0
   24.6046   18.7296   11.0861 N   0  0  0  0  0  0  0  0  0  0  0  0
   26.4357   17.2067   11.8159 C   0  0  0  0  0  0  0  0  0  0  0  0
   26.7856   15.8749   12.5788 C   0  0  2  0  0  0  0  0  0  0  0  0
   28.2365   15.6365   12.5805 N   0  0  0  0  0  0  0  0  0  0  0  0
   26.0998   14.6736   11.8979 C   0  0  2  0  0  0  0  0  0  0  0  0
   24.5313   14.8772   11.8641 C   0  0  2  0  0  0  0  0  0  0  0  0
   23.9726   13.6801   11.2052 O   0  0  0  0  0  0  0  0  0  0  0  0
   24.1968   16.2115   11.0219 C   0  0  1  0  0  0  0  0  0  0  0  0
   22.8132   16.3686   10.9972 O   0  0  0  0  0  0  0  0  0  0  0  0
   24.0914   13.3503    9.9643 C   0  0  1  0  0  0  0  0  0  0  0  0
   23.2770   12.1009    9.5166 C   0  0  2  0  0  0  0  0  0  0  0  0
   24.0856   10.9779    9.6742 O   0  0  0  0  0  0  0  0  0  0  0  0
   23.1029   12.4502    8.0968 C   0  0  1  0  0  0  0  0  0  0  0  0
   22.8424   13.9854    8.0024 C   0  0  2  0  0  0  0  0  0  0  0  0
   23.7308   14.4017    9.0102 O   0  0  0  0  0  0  0  0  0  0  0  0
   21.3972   14.4796    8.0800 C   0  0  0  0  0  0  0  0  0  0  0  0
   21.1044   15.0479    6.8176 O   0  0  0  0  0  0  0  0  0  0  0  0
   25.2050   13.0116    6.9613 C   0  0  2  0  0  0  0  0  0  0  0  0
   24.3619   12.0316    7.3998 O   0  0  0  0  0  0  0  0  0  0  0  0
   25.1847   13.1464    5.4671 C   0  0  1  0  0  0  0  0  0  0  0  0
   29.3601   13.9494    8.9579 N   0  0  0  0  0  0  0  0  0  0  0  0
   23.4824   20.1814    8.2936 O   0  0  0  0  0  0  0  0  0  0  0  0
   26.2158   14.2573    5.0279 C   0  0  2  0  0  0  0  0  0  0  0  0
   27.6804   13.9857    5.5178 C   0  0  1  0  0  0  0  0  0  0  0  0
   27.6757   13.8697    6.9573 C   0  0  1  0  0  0  0  0  0  0  0  0
   26.6908   12.8069    7.4060 O   0  0  0  0  0  0  0  0  0  0  0  0
   29.1386   13.5494    7.4964 C   0  0  0  0  0  0  0  0  0  0  0  0
   25.5702   11.9306    4.8675 N   0  0  0  0  0  0  0  0  0  0  0  0
   25.5080    9.8184   11.4584 O   0  0  0  0  0  0  0  0  0  0  0  0
   24.6082   21.0989   10.0402 C   0  0  0  0  0  0  0  0  0  0  0  0
   28.0341   12.9916    5.0660 O   0  0  0  0  0  0  0  0  0  0  0  0
   25.8891   15.2550    5.4981 O   0  0  0  0  0  0  0  0  0  0  0  0
   25.0519   18.8062    9.6568 C   0  0  0  0  0  0  0  0  0  0  0  0
   25.8785   21.3658   10.4997 C   0  0  0  0  0  0  0  0  0  0  0  0
   24.7088   20.2503    9.0179 C   0  0  1  0  0  0  0  0  0  0  0  0
   27.3915    9.1525   13.2220 F   0  0  0  0  0  0  0  0  0  0  0  0
  1  2  1  1  0  0  0
  1 10  1  0  0  0  0
  1  3  1  0  0  0  0
  3  4  1  6  0  0  0
  3  6  1  0  0  0  0
  5 46  2  0  0  0  0
  6 42  1  6  0  0  0
  6  8  1  0  0  0  0
  7 47  1  0  0  0  0
  8  9  1  0  0  0  0
  8 49  1  6  0  0  0
  9 10  1  0  0  0  0
  9 11  1  1  0  0  0
 11 12  1  0  0  0  0
 13 14  1  6  0  0  0
 13 15  1  0  0  0  0
 13 21  1  0  0  0  0
 14 46  1  0  0  0  0
 15 16  1  0  0  0  0
 16 17  1  6  0  0  0
 16 18  1  0  0  0  0
 18  2  1  1  0  0  0
 18 19  1  0  0  0  0
 19 20  1  6  0  0  0
 19 21  1  0  0  0  0
 21 22  1  1  0  0  0
 23 20  1  1  0  0  0
 23 24  1  0  0  0  0
 23 28  1  0  0  0  0
 24 25  1  6  0  0  0
 24 26  1  0  0  0  0
 26 27  1  0  0  0  0
 26 32  1  6  0  0  0
 27 28  1  0  0  0  0
 27 29  1  1  0  0  0
 29 30  1  0  0  0  0
 31 32  1  6  0  0  0
 31 33  1  0  0  0  0
 31 39  1  0  0  0  0
 33 36  1  0  0  0  0
 33 41  1  6  0  0  0
 34 40  1  0  0  0  0
 35 48  1  0  0  0  0
 36 37  1  0  0  0  0
 36 45  1  1  0  0  0
 37 38  1  0  0  0  0
 37 44  1  6  0  0  0
 38 39  1  0  0  0  0
 38 40  1  6  0  0  0
 43 47  1  0  0  0  0
 46 48  1  0  0  0  0
 48 43  1  1  0  0  0
M  END
>  <CHROM.1>
-86.70494686,-97.17186505,84.51181013,61.11293387,-69.16716471,-174.21376551
-108.90882143,-114.54827129,-107.83167546,156.93011135,-111.56722968,-165.96213867
82.35211114,25.63791388,14.28403612,9.94385835,-0.39930778,-1.28436871,0.65898388

>  <Name>
ligand

>  <RI>
0

>  <Rbt.Current_Directory>
/home/itssahil/PROJECTS/Mol_Feturizer/New_Systems/rnas/4PDQ

>  <Rbt.Executable>
rbdock ($Id: //depot/dev/client3/rdock/2013.1/src/exe/rbdock.cxx#4 $)

>  <Rbt.Library>
libRbt.so (2013.1, Build901 2013/11/27)

>  <Rbt.Parameter_File>
/export/apps/rDock/src/rDock_2013.1_src/data/scripts/dock_solv.prm

>  <Rbt.Receptor>
prm/blind_docking_80.prm

>  <SCORE>
28.8478

>  <SCORE.INTER>
10.359

>  <SCORE.INTER.CONST>
1

>  <SCORE.INTER.POLAR>
0

>  <SCORE.INTER.ROT>
13

>  <SCORE.INTER.SOLV>
34.0707

>  <SCORE.INTER.VDW>
-16.7176

>  <SCORE.INTER.norm>
0.211407

>  <SCORE.INTRA>
13.9313

>  <SCORE.INTRA.DIHEDRAL>
3.70372

>  <SCORE.INTRA.DIHEDRAL.0>
34.5115

>  <SCORE.INTRA.POLAR>
0

>  <SCORE.INTRA.POLAR.0>
0

>  <SCORE.INTRA.REPUL>
0.494584

>  <SCORE.INTRA.REPUL.0>
0

>  <SCORE.INTRA.SOLV>
10.1169

>  <SCORE.INTRA.SOLV.lig_0>
-122.812

>  <SCORE.INTRA.VDW>
4.54802

>  <SCORE.INTRA.VDW.0>
-7.46208

>  <SCORE.INTRA.norm>
0.284311

>  <SCORE.RESTR>
4.55762

>  <SCORE.RESTR.CAVITY>
4.55762

>  <SCORE.RESTR.norm>
0.0930127

>  <SCORE.SYSTEM>
0

>  <SCORE.SYSTEM.CONST>
0

>  <SCORE.SYSTEM.DIHEDRAL>
0

>  <SCORE.SYSTEM.SOLV>
0

>  <SCORE.SYSTEM.norm>
0

>  <SCORE.heavy>
49

>  <SCORE.norm>
0.588731

>  <RMSD>
11.945

$$$$
ligand
 OpenBabel11021811513D
libRbt.so/2013.1/901 2013/11/27
 49 52  0  0  0  0  0  0  0  0999 V2000
   23.6252   17.5051   11.0267 C   0  0  2  0  0  0  0  0  0  0  0  0
   23.9946   16.3565   10.3222 O   0  0  0  0  0  0  0  0  0  0  0  0
   23.4434   18.7062   10.0259 C   0  0  2  0  0  0  0  0  0  0  0  0
   22.3772   18.3459    9.0033 N   0  0  0  0  0  0  0  0  0  0  0  0
   26.7649   12.4276   15.1132 O   0  0  0  0  0  0  0  0  0  0  0  0
   24.7885   19.0465    9.3428 C   0  0  2  0  0  0  0  0  0  0  0  0
   28.6242   10.2685   14.1013 N   0  0  0  0  0  0  0  0  0  0  0  0
   25.8541   19.3874   10.3962 C   0  0  2  0  0  0  0  0  0  0  0  0
   26.0643   18.1982   11.4264 C   0  0  2  0  0  0  0  0  0  0  0  0
   24.7020   17.8618   12.0357 O   0  0  0  0  0  0  0  0  0  0  0  0
   27.1039   18.5718   12.5224 C   0  0  0  0  0  0  0  0  0  0  0  0
   27.6465   17.4514   13.2038 N   0  0  0  0  0  0  0  0  0  0  0  0
   24.7125   13.1876   13.1937 C   0  0  2  0  0  0  0  0  0  0  0  0
   24.8418   11.8091   13.7505 N   0  0  0  0  0  0  0  0  0  0  0  0
   23.3497   13.2258   12.3465 C   0  0  0  0  0  0  0  0  0  0  0  0
   23.1208   14.6602   11.7397 C   0  0  2  0  0  0  0  0  0  0  0  0
   21.8851   14.7026   10.9441 N   0  0  0  0  0  0  0  0  0  0  0  0
   24.2987   15.0464   10.8230 C   0  0  2  0  0  0  0  0  0  0  0  0
   25.6605   15.0144   11.6276 C   0  0  2  0  0  0  0  0  0  0  0  0
   26.7157   15.4030   10.6710 O   0  0  0  0  0  0  0  0  0  0  0  0
   25.9032   13.5196   12.1824 C   0  0  1  0  0  0  0  0  0  0  0  0
   27.1087   13.5104   12.8798 O   0  0  0  0  0  0  0  0  0  0  0  0
   27.0884   14.7544    9.6206 C   0  0  1  0  0  0  0  0  0  0  0  0
   28.6054   14.4125    9.5411 C   0  0  2  0  0  0  0  0  0  0  0  0
   29.2485   15.4501    8.8706 O   0  0  0  0  0  0  0  0  0  0  0  0
   28.5137   13.2018    8.7081 C   0  0  1  0  0  0  0  0  0  0  0  0
   27.2587   12.3937    9.1616 C   0  0  2  0  0  0  0  0  0  0  0  0
   26.3991   13.4797    9.4069 O   0  0  0  0  0  0  0  0  0  0  0  0
   27.4292   11.3569   10.2728 C   0  0  0  0  0  0  0  0  0  0  0  0
   26.1966   10.6678   10.3643 O   0  0  0  0  0  0  0  0  0  0  0  0
   27.2525   14.2525    6.8836 C   0  0  2  0  0  0  0  0  0  0  0  0
   28.4194   13.6707    7.2877 O   0  0  0  0  0  0  0  0  0  0  0  0
   26.7478   13.6701    5.5963 C   0  0  1  0  0  0  0  0  0  0  0  0
   25.0366   18.8884    5.9679 N   0  0  0  0  0  0  0  0  0  0  0  0
   24.6651    9.7002   15.7491 O   0  0  0  0  0  0  0  0  0  0  0  0
   25.4293   14.4212    5.1635 C   0  0  2  0  0  0  0  0  0  0  0  0
   25.6090   15.9716    5.0118 C   0  0  1  0  0  0  0  0  0  0  0  0
   26.0853   16.5098    6.2643 C   0  0  1  0  0  0  0  0  0  0  0  0
   27.3538   15.8032    6.7033 O   0  0  0  0  0  0  0  0  0  0  0  0
   26.3244   18.0786    6.1431 C   0  0  0  0  0  0  0  0  0  0  0  0
   27.7060   13.8471    4.5780 N   0  0  0  0  0  0  0  0  0  0  0  0
   24.6395   19.9458    8.6533 O   0  0  0  0  0  0  0  0  0  0  0  0
   26.2705    9.2889   14.1955 C   0  0  0  0  0  0  0  0  0  0  0  0
   26.3968   16.1663    4.2000 O   0  0  0  0  0  0  0  0  0  0  0  0
   24.6389   14.2583    5.9832 O   0  0  0  0  0  0  0  0  0  0  0  0
   25.9544   11.5731   14.7278 C   0  0  0  0  0  0  0  0  0  0  0  0
   27.6433    9.2435   14.0990 C   0  0  0  0  0  0  0  0  0  0  0  0
   25.9553   10.0430   15.2478 C   0  0  1  0  0  0  0  0  0  0  0  0
   25.4652   20.5293   11.1188 F   0  0  0  0  0  0  0  0  0  0  0  0
  1  2  1  6  0  0  0
  1 10  1  0  0  0  0
  1  3  1  0  0  0  0
  3  4  1  6  0  0  0
  3  6  1  0  0  0  0
  5 46  2  0  0  0  0
  6 42  1  6  0  0  0
  6  8  1  0  0  0  0
  7 47  1  0  0  0  0
  8  9  1  0  0  0  0
  8 49  1  1  0  0  0
  9 10  1  0  0  0  0
  9 11  1  1  0  0  0
 11 12  1  0  0  0  0
 13 14  1  6  0  0  0
 13 15  1  0  0  0  0
 13 21  1  0  0  0  0
 14 46  1  0  0  0  0
 15 16  1  0  0  0  0
 16 17  1  6  0  0  0
 16 18  1  0  0  0  0
 18  2  1  1  0  0  0
 18 19  1  0  0  0  0
 19 20  1  6  0  0  0
 19 21  1  0  0  0  0
 21 22  1  1  0  0  0
 23 20  1  1  0  0  0
 23 24  1  0  0  0  0
 23 28  1  0  0  0  0
 24 25  1  6  0  0  0
 24 26  1  0  0  0  0
 26 27  1  0  0  0  0
 26 32  1  6  0  0  0
 27 28  1  0  0  0  0
 27 29  1  1  0  0  0
 29 30  1  0  0  0  0
 31 32  1  6  0  0  0
 31 33  1  0  0  0  0
 31 39  1  0  0  0  0
 33 36  1  0  0  0  0
 33 41  1  6  0  0  0
 34 40  1  0  0  0  0
 35 48  1  0  0  0  0
 36 37  1  0  0  0  0
 36 45  1  1  0  0  0
 37 38  1  0  0  0  0
 37 44  1  6  0  0  0
 38 39  1  0  0  0  0
 38 40  1  6  0  0  0
 43 47  1  0  0  0  0
 46 48  1  0  0  0  0
 48 43  1  6  0  0  0
M  END
>  <CHROM.1>
178.19963748,51.08630319,-161.19747127,-172.45252483,-64.98430109,-124.79482271
-71.99920624,-172.85270833,-130.96508900,67.99094945,-50.36411105,-155.49262518
125.95928957,25.94940522,14.84337051,10.16427218,1.71981470,1.17436419,-0.95858078

>  <Name>
ligand

>  <RI>
0

>  <Rbt.Current_Directory>
/home/itssahil/PROJECTS/Mol_Feturizer/New_Systems/rnas/4PDQ

>  <Rbt.Executable>
rbdock ($Id: //depot/dev/client3/rdock/2013.1/src/exe/rbdock.cxx#4 $)

>  <Rbt.Library>
libRbt.so (2013.1, Build901 2013/11/27)

>  <Rbt.Parameter_File>
/export/apps/rDock/src/rDock_2013.1_src/data/scripts/dock_solv.prm

>  <Rbt.Receptor>
prm/blind_docking_60.prm

>  <SCORE>
10.3155

>  <SCORE.INTER>
10.9528

>  <SCORE.INTER.CONST>
1

>  <SCORE.INTER.POLAR>
0

>  <SCORE.INTER.ROT>
13

>  <SCORE.INTER.SOLV>
37.2218

>  <SCORE.INTER.VDW>
-17.3721

>  <SCORE.INTER.norm>
0.223526

>  <SCORE.INTRA>
-2.94799

>  <SCORE.INTRA.DIHEDRAL>
-14.9429

>  <SCORE.INTRA.DIHEDRAL.0>
34.5115

>  <SCORE.INTRA.POLAR>
0

>  <SCORE.INTRA.POLAR.0>
0

>  <SCORE.INTRA.REPUL>
0

>  <SCORE.INTRA.REPUL.0>
0

>  <SCORE.INTRA.SOLV>
5.99981

>  <SCORE.INTRA.SOLV.lig_0>
-122.812

>  <SCORE.INTRA.VDW>
1.52354

>  <SCORE.INTRA.VDW.0>
-7.46208

>  <SCORE.INTRA.norm>
-0.060163

>  <SCORE.RESTR>
2.31071

>  <SCORE.RESTR.CAVITY>
2.31071

>  <SCORE.RESTR.norm>
0.0471573

>  <SCORE.SYSTEM>
0

>  <SCORE.SYSTEM.CONST>
0

>  <SCORE.SYSTEM.DIHEDRAL>
0

>  <SCORE.SYSTEM.SOLV>
0

>  <SCORE.SYSTEM.norm>
0

>  <SCORE.heavy>
49

>  <SCORE.norm>
0.21052

>  <RMSD>
11.973

$$$$
ligand
 OpenBabel11021811513D
libRbt.so/2013.1/901 2013/11/27
 49 52  0  0  0  0  0  0  0  0999 V2000
   27.1608   15.6696   12.3683 C   0  0  2  0  0  0  0  0  0  0  0  0
   26.3568   14.7107   12.9897 O   0  0  0  0  0  0  0  0  0  0  0  0
   27.5866   16.7646   13.4155 C   0  0  2  0  0  0  0  0  0  0  0  0
   28.3414   16.0979   14.5549 N   0  0  0  0  0  0  0  0  0  0  0  0
   28.5361    8.7241   13.4831 O   0  0  0  0  0  0  0  0  0  0  0  0
   26.3447   17.5281   13.9318 C   0  0  2  0  0  0  0  0  0  0  0  0
   24.0448    6.9433   12.1975 N   0  0  0  0  0  0  0  0  0  0  0  0
   25.5882   18.1758   12.7615 C   0  0  2  0  0  0  0  0  0  0  0  0
   25.1433   17.1006   11.6818 C   0  0  2  0  0  0  0  0  0  0  0  0
   26.3931   16.3364   11.2410 O   0  0  0  0  0  0  0  0  0  0  0  0
   24.4271   17.7702   10.4734 C   0  0  0  0  0  0  0  0  0  0  0  0
   23.6438   16.8728    9.7019 N   0  0  0  0  0  0  0  0  0  0  0  0
   27.3161   10.6812   11.7066 C   0  0  2  0  0  0  0  0  0  0  0  0
   27.1844    9.2073   11.5140 N   0  0  0  0  0  0  0  0  0  0  0  0
   26.9723   10.9863   13.2445 C   0  0  0  0  0  0  0  0  0  0  0  0
   27.1116   12.5257   13.5430 C   0  0  2  0  0  0  0  0  0  0  0  0
   26.7794   12.8208   14.9446 N   0  0  0  0  0  0  0  0  0  0  0  0
   26.1573   13.3330   12.6404 C   0  0  2  0  0  0  0  0  0  0  0  0
   26.4671   13.0514   11.1148 C   0  0  2  0  0  0  0  0  0  0  0  0
   25.5131   13.8700   10.3407 O   0  0  0  0  0  0  0  0  0  0  0  0
   26.2538   11.4799   10.8210 C   0  0  1  0  0  0  0  0  0  0  0  0
   26.5232   11.2542    9.4733 O   0  0  0  0  0  0  0  0  0  0  0  0
   25.7316   14.4607    9.2155 C   0  0  1  0  0  0  0  0  0  0  0  0
   27.1101   14.1654    8.5544 C   0  0  2  0  0  0  0  0  0  0  0  0
   28.0162   15.1273    8.9945 O   0  0  0  0  0  0  0  0  0  0  0  0
   26.7294   14.3806    7.1484 C   0  0  1  0  0  0  0  0  0  0  0  0
   25.2973   13.7990    6.9382 C   0  0  2  0  0  0  0  0  0  0  0  0
   24.7418   14.1836    8.1719 O   0  0  0  0  0  0  0  0  0  0  0  0
   25.1661   12.3321    6.5259 C   0  0  0  0  0  0  0  0  0  0  0  0
   25.6284   12.2529    5.1908 O   0  0  0  0  0  0  0  0  0  0  0  0
   25.6377   16.5750    7.0207 C   0  0  2  0  0  0  0  0  0  0  0  0
   26.7951   15.8593    6.9131 O   0  0  0  0  0  0  0  0  0  0  0  0
   24.8800   16.6205    5.7265 C   0  0  1  0  0  0  0  0  0  0  0  0
   25.6622   20.3692    9.5342 N   0  0  0  0  0  0  0  0  0  0  0  0
   28.7053    5.9841   12.6937 O   0  0  0  0  0  0  0  0  0  0  0  0
   23.5847   17.5030    5.9093 C   0  0  2  0  0  0  0  0  0  0  0  0
   23.8812   18.9612    6.4038 C   0  0  1  0  0  0  0  0  0  0  0  0
   24.6012   18.8915    7.6537 C   0  0  1  0  0  0  0  0  0  0  0  0
   25.8526   18.0470    7.5047 O   0  0  0  0  0  0  0  0  0  0  0  0
   24.9627   20.3522    8.1721 C   0  0  0  0  0  0  0  0  0  0  0  0
   25.6736   17.2117    4.7230 N   0  0  0  0  0  0  0  0  0  0  0  0
   26.6832   18.3429   14.6582 O   0  0  0  0  0  0  0  0  0  0  0  0
   26.4796    6.4327   12.7627 C   0  0  0  0  0  0  0  0  0  0  0  0
   24.5424   19.4804    5.6223 O   0  0  0  0  0  0  0  0  0  0  0  0
   22.9251   17.0090    6.7119 O   0  0  0  0  0  0  0  0  0  0  0  0
   27.8753    8.3275   12.5127 C   0  0  0  0  0  0  0  0  0  0  0  0
   25.4527    6.9805   12.0268 C   0  0  0  0  0  0  0  0  0  0  0  0
   27.6297    6.7657   12.1782 C   0  0  1  0  0  0  0  0  0  0  0  0
   26.4107   19.1218   12.1244 F   0  0  0  0  0  0  0  0  0  0  0  0
  1  2  1  1  0  0  0
  1 10  1  0  0  0  0
  1  3  1  0  0  0  0
  3  4  1  1  0  0  0
  3  6  1  0  0  0  0
  5 46  2  0  0  0  0
  6 42  1  1  0  0  0
  6  8  1  0  0  0  0
  7 47  1  0  0  0  0
  8  9  1  0  0  0  0
  8 49  1  6  0  0  0
  9 10  1  0  0  0  0
  9 11  1  6  0  0  0
 11 12  1  0  0  0  0
 13 14  1  1  0  0  0
 13 15  1  0  0  0  0
 13 21  1  0  0  0  0
 14 46  1  0  0  0  0
 15 16  1  0  0  0  0
 16 17  1  1  0  0  0
 16 18  1  0  0  0  0
 18  2  1  6  0  0  0
 18 19  1  0  0  0  0
 19 20  1  6  0  0  0
 19 21  1  0  0  0  0
 21 22  1  6  0  0  0
 23 20  1  1  0  0  0
 23 24  1  0  0  0  0
 23 28  1  0  0  0  0
 24 25  1  1  0  0  0
 24 26  1  0  0  0  0
 26 27  1  0  0  0  0
 26 32  1  1  0  0  0
 27 28  1  0  0  0  0
 27 29  1  1  0  0  0
 29 30  1  0  0  0  0
 31 32  1  6  0  0  0
 31 33  1  0  0  0  0
 31 39  1  0  0  0  0
 33 36  1  0  0  0  0
 33 41  1  6  0  0  0
 34 40  1  0  0  0  0
 35 48  1  0  0  0  0
 36 37  1  0  0  0  0
 36 45  1  1  0  0  0
 37 38  1  0  0  0  0
 37 44  1  6  0  0  0
 38 39  1  0  0  0  0
 38 40  1  6  0  0  0
 43 47  1  0  0  0  0
 46 48  1  0  0  0  0
 48 43  1  1  0  0  0
M  END
>  <CHROM.1>
-153.64684647,96.97795867,-161.00174147,-48.90884923,144.54752291,5.87363436
-95.97841766,-70.36254403,-87.71550411,176.84343636,-179.80545062,-166.34993853
-27.08432570,26.05659407,14.35134012,10.18535643,-2.36900727,1.31098689,-2.80439557

>  <Name>
ligand

>  <RI>
0

>  <Rbt.Current_Directory>
/home/itssahil/PROJECTS/Mol_Feturizer/New_Systems/rnas/4PDQ

>  <Rbt.Executable>
rbdock ($Id: //depot/dev/client3/rdock/2013.1/src/exe/rbdock.cxx#4 $)

>  <Rbt.Library>
libRbt.so (2013.1, Build901 2013/11/27)

>  <Rbt.Parameter_File>
/export/apps/rDock/src/rDock_2013.1_src/data/scripts/dock_solv.prm

>  <Rbt.Receptor>
prm/blind_docking_60.prm

>  <SCORE>
8.34261

>  <SCORE.INTER>
0.852254

>  <SCORE.INTER.CONST>
1

>  <SCORE.INTER.POLAR>
0

>  <SCORE.INTER.ROT>
13

>  <SCORE.INTER.SOLV>
33.3927

>  <SCORE.INTER.VDW>
-22.8294

>  <SCORE.INTER.norm>
0.0173929

>  <SCORE.INTRA>
6.13346

>  <SCORE.INTRA.DIHEDRAL>
-3.34309

>  <SCORE.INTRA.DIHEDRAL.0>
34.5115

>  <SCORE.INTRA.POLAR>
0

>  <SCORE.INTRA.POLAR.0>
0

>  <SCORE.INTRA.REPUL>
0.0423814

>  <SCORE.INTRA.REPUL.0>
0

>  <SCORE.INTRA.SOLV>
8.65249

>  <SCORE.INTRA.SOLV.lig_0>
-122.812

>  <SCORE.INTRA.VDW>
3.26686

>  <SCORE.INTRA.VDW.0>
-7.46208

>  <SCORE.INTRA.norm>
0.125173

>  <SCORE.RESTR>
1.3569

>  <SCORE.RESTR.CAVITY>
1.3569

>  <SCORE.RESTR.norm>
0.0276919

>  <SCORE.SYSTEM>
0

>  <SCORE.SYSTEM.CONST>
0

>  <SCORE.SYSTEM.DIHEDRAL>
0

>  <SCORE.SYSTEM.SOLV>
0

>  <SCORE.SYSTEM.norm>
0

>  <SCORE.heavy>
49

>  <SCORE.norm>
0.170257

>  <RMSD>
11.977

$$$$
ligand
 OpenBabel11021811513D
libRbt.so/2013.1/901 2013/11/27
 49 52  0  0  0  0  0  0  0  0999 V2000
   25.6287   12.6152   12.8526 C   0  0  2  0  0  0  0  0  0  0  0  0
   26.2709   13.8549   12.9039 O   0  0  0  0  0  0  0  0  0  0  0  0
   26.2144   11.6676   13.9645 C   0  0  2  0  0  0  0  0  0  0  0  0
   26.0126   12.3130   15.3265 N   0  0  0  0  0  0  0  0  0  0  0  0
   26.6442   20.2550   12.2915 O   0  0  0  0  0  0  0  0  0  0  0  0
   27.7092   11.3782   13.6931 C   0  0  2  0  0  0  0  0  0  0  0  0
   23.8721   24.3756   10.2394 N   0  0  0  0  0  0  0  0  0  0  0  0
   27.8896   10.7452   12.3044 C   0  0  2  0  0  0  0  0  0  0  0  0
   27.3080   11.6729   11.1551 C   0  0  2  0  0  0  0  0  0  0  0  0
   25.8470   11.9753   11.4934 O   0  0  0  0  0  0  0  0  0  0  0  0
   27.4440   11.0011    9.7581 C   0  0  0  0  0  0  0  0  0  0  0  0
   26.9613    9.6673    9.7138 N   0  0  0  0  0  0  0  0  0  0  0  0
   25.2459   17.8275   11.4999 C   0  0  2  0  0  0  0  0  0  0  0  0
   25.2721   19.0653   10.6667 N   0  0  0  0  0  0  0  0  0  0  0  0
   26.7714   17.4456   11.8214 C   0  0  0  0  0  0  0  0  0  0  0  0
   26.8361   16.1566   12.7228 C   0  0  2  0  0  0  0  0  0  0  0  0
   28.2298   15.7846   13.0077 N   0  0  0  0  0  0  0  0  0  0  0  0
   26.1563   14.9712   12.0091 C   0  0  2  0  0  0  0  0  0  0  0  0
   24.6494   15.3169   11.6735 C   0  0  2  0  0  0  0  0  0  0  0  0
   24.0904   14.1256   11.0044 O   0  0  0  0  0  0  0  0  0  0  0  0
   24.6140   16.6001   10.6969 C   0  0  1  0  0  0  0  0  0  0  0  0
   23.2815   16.8832   10.4073 O   0  0  0  0  0  0  0  0  0  0  0  0
   24.2170   13.8016    9.7627 C   0  0  1  0  0  0  0  0  0  0  0  0
   23.4962   12.4910    9.3300 C   0  0  2  0  0  0  0  0  0  0  0  0
   24.3920   11.4349    9.4787 O   0  0  0  0  0  0  0  0  0  0  0  0
   23.2751   12.8205    7.9120 C   0  0  1  0  0  0  0  0  0  0  0  0
   22.8944   14.3303    7.8175 C   0  0  2  0  0  0  0  0  0  0  0  0
   23.7619   14.8182    8.8114 O   0  0  0  0  0  0  0  0  0  0  0  0
   21.4163   14.7106    7.9148 C   0  0  0  0  0  0  0  0  0  0  0  0
   20.9561   14.1987    9.1513 O   0  0  0  0  0  0  0  0  0  0  0  0
   25.4634   13.5027    7.0349 C   0  0  2  0  0  0  0  0  0  0  0  0
   24.5530   12.4987    7.1979 O   0  0  0  0  0  0  0  0  0  0  0  0
   25.9244   13.6207    5.6119 C   0  0  1  0  0  0  0  0  0  0  0  0
   29.7714   12.8987    8.4973 N   0  0  0  0  0  0  0  0  0  0  0  0
   26.2790   21.0530    8.8716 O   0  0  0  0  0  0  0  0  0  0  0  0
   27.0091   14.7619    5.5063 C   0  0  2  0  0  0  0  0  0  0  0  0
   28.2432   14.5466    6.4493 C   0  0  1  0  0  0  0  0  0  0  0  0
   27.7759   14.4459    7.8120 C   0  0  1  0  0  0  0  0  0  0  0  0
   26.7303   13.3544    7.9406 O   0  0  0  0  0  0  0  0  0  0  0  0
   28.9938   14.1823    8.8020 C   0  0  0  0  0  0  0  0  0  0  0  0
   26.5190   12.4127    5.1954 N   0  0  0  0  0  0  0  0  0  0  0  0
   28.0999   10.6572   14.4891 O   0  0  0  0  0  0  0  0  0  0  0  0
   24.7413   21.9772   10.2648 C   0  0  0  0  0  0  0  0  0  0  0  0
   28.7533   13.5605    6.1575 O   0  0  0  0  0  0  0  0  0  0  0  0
   26.5186   15.7527    5.8241 O   0  0  0  0  0  0  0  0  0  0  0  0
   26.0331   20.2360   11.2136 C   0  0  0  0  0  0  0  0  0  0  0  0
   24.7992   23.3279   10.0035 C   0  0  0  0  0  0  0  0  0  0  0  0
   25.9794   21.4898   10.1955 C   0  0  1  0  0  0  0  0  0  0  0  0
   27.2204    9.5097   12.2506 F   0  0  0  0  0  0  0  0  0  0  0  0
  1  2  1  6  0  0  0
  1 10  1  0  0  0  0
  1  3  1  0  0  0  0
  3  4  1  1  0  0  0
  3  6  1  0  0  0  0
  5 46  2  0  0  0  0
  6 42  1  1  0  0  0
  6  8  1  0  0  0  0
  7 47  1  0  0  0  0
  8  9  1  0  0  0  0
  8 49  1  1  0  0  0
  9 10  1  0  0  0  0
  9 11  1  6  0  0  0
 11 12  1  0  0  0  0
 13 14  1  6  0  0  0
 13 15  1  0  0  0  0
 13 21  1  0  0  0  0
 14 46  1  0  0  0  0
 15 16  1  0  0  0  0
 16 17  1  6  0  0  0
 16 18  1  0  0  0  0
 18  2  1  1  0  0  0
 18 19  1  0  0  0  0
 19 20  1  6  0  0  0
 19 21  1  0  0  0  0
 21 22  1  1  0  0  0
 23 20  1  1  0  0  0
 23 24  1  0  0  0  0
 23 28  1  0  0  0  0
 24 25  1  6  0  0  0
 24 26  1  0  0  0  0
 26 27  1  0  0  0  0
 26 32  1  6  0  0  0
 27 28  1  0  0  0  0
 27 29  1  1  0  0  0
 29 30  1  0  0  0  0
 31 32  1  6  0  0  0
 31 33  1  0  0  0  0
 31 39  1  0  0  0  0
 33 36  1  0  0  0  0
 33 41  1  1  0  0  0
 34 40  1  0  0  0  0
 35 48  1  0  0  0  0
 36 37  1  0  0  0  0
 36 45  1  1  0  0  0
 37 38  1  0  0  0  0
 37 44  1  6  0  0  0
 38 39  1  0  0  0  0
 38 40  1  1  0  0  0
 43 47  1  0  0  0  0
 46 48  1  0  0  0  0
 48 43  1  6  0  0  0
M  END
>  <CHROM.1>
173.34539424,167.63257457,49.77169880,-53.93106944,-81.52587585,-179.11238841
-93.19377494,57.37726573,-129.50791836,-59.46600940,-163.29402660,-90.34290668
131.63149503,25.84589720,14.81304855,10.01532219,-0.69805271,-1.35448247
0.80827279

>  <Name>
ligand

>  <RI>
0

>  <Rbt.Current_Directory>
/home/itssahil/PROJECTS/Mol_Feturizer/New_Systems/rnas/4PDQ

>  <Rbt.Executable>
rbdock ($Id: //depot/dev/client3/rdock/2013.1/src/exe/rbdock.cxx#4 $)

>  <Rbt.Library>
libRbt.so (2013.1, Build901 2013/11/27)

>  <Rbt.Parameter_File>
/export/apps/rDock/src/rDock_2013.1_src/data/scripts/dock_solv.prm

>  <Rbt.Receptor>
prm/blind_docking_40.prm

>  <SCORE>
-0.929744

>  <SCORE.INTER>
1.33057

>  <SCORE.INTER.CONST>
1

>  <SCORE.INTER.POLAR>
0

>  <SCORE.INTER.ROT>
13

>  <SCORE.INTER.SOLV>
30.7908

>  <SCORE.INTER.VDW>
-21.6432

>  <SCORE.INTER.norm>
0.0271544

>  <SCORE.INTRA>
-3.92986

>  <SCORE.INTRA.DIHEDRAL>
-15.516

>  <SCORE.INTRA.DIHEDRAL.0>
34.5115

>  <SCORE.INTRA.POLAR>
0

>  <SCORE.INTRA.POLAR.0>
0

>  <SCORE.INTRA.REPUL>
0

>  <SCORE.INTRA.REPUL.0>
0

>  <SCORE.INTRA.SOLV>
2.92399

>  <SCORE.INTRA.SOLV.lig_0>
-122.812

>  <SCORE.INTRA.VDW>
2.36615

>  <SCORE.INTRA.VDW.0>
-7.46208

>  <SCORE.INTRA.norm>
-0.0802012

>  <SCORE.RESTR>
1.66955

>  <SCORE.RESTR.CAVITY>
1.66955

>  <SCORE.RESTR.norm>
0.0340724

>  <SCORE.SYSTEM>
0

>  <SCORE.SYSTEM.CONST>
0

>  <SCORE.SYSTEM.DIHEDRAL>
0

>  <SCORE.SYSTEM.SOLV>
0

>  <SCORE.SYSTEM.norm>
0

>  <SCORE.heavy>
49

>  <SCORE.norm>
-0.0189744

>  <RMSD>
11.992

$$$$
ligand
 OpenBabel11021811513D
libRbt.so/2013.1/901 2013/11/27
 49 52  0  0  0  0  0  0  0  0999 V2000
   28.0856    4.6802   12.6912 C   0  0  2  0  0  0  0  0  0  0  0  0
   27.9127    5.3992   11.5058 O   0  0  0  0  0  0  0  0  0  0  0  0
   29.1550    3.5462   12.4731 C   0  0  2  0  0  0  0  0  0  0  0  0
   30.4690    4.1769   12.0394 N   0  0  0  0  0  0  0  0  0  0  0  0
   23.9235    9.9877    8.2961 O   0  0  0  0  0  0  0  0  0  0  0  0
   28.6493    2.5221   11.4303 C   0  0  2  0  0  0  0  0  0  0  0  0
   22.1797   14.7944    9.5704 N   0  0  0  0  0  0  0  0  0  0  0  0
   27.3119    1.9137   11.8806 C   0  0  2  0  0  0  0  0  0  0  0  0
   26.2068    3.0293   12.1129 C   0  0  2  0  0  0  0  0  0  0  0  0
   26.7708    4.0455   13.1076 O   0  0  0  0  0  0  0  0  0  0  0  0
   24.8725    2.4112   12.6220 C   0  0  0  0  0  0  0  0  0  0  0  0
   23.8095    3.3459   12.7235 N   0  0  0  0  0  0  0  0  0  0  0  0
   25.5800    8.8907   10.4238 C   0  0  2  0  0  0  0  0  0  0  0  0
   25.1212   10.3104   10.3936 N   0  0  0  0  0  0  0  0  0  0  0  0
   25.7922    8.4987   11.9658 C   0  0  0  0  0  0  0  0  0  0  0  0
   26.2558    6.9996   12.0921 C   0  0  2  0  0  0  0  0  0  0  0  0
   26.4732    6.6341   13.4996 N   0  0  0  0  0  0  0  0  0  0  0  0
   27.5770    6.7831   11.3275 C   0  0  2  0  0  0  0  0  0  0  0  0
   27.4033    7.1651    9.8021 C   0  0  2  0  0  0  0  0  0  0  0  0
   28.7103    6.9175    9.1619 O   0  0  0  0  0  0  0  0  0  0  0  0
   26.9924    8.7213    9.6979 C   0  0  1  0  0  0  0  0  0  0  0  0
   26.8522    9.0394    8.3493 O   0  0  0  0  0  0  0  0  0  0  0  0
   29.0412    7.1836    7.9443 C   0  0  1  0  0  0  0  0  0  0  0  0
   30.4534    6.6955    7.5062 C   0  0  2  0  0  0  0  0  0  0  0  0
   31.3623    7.7211    7.7548 O   0  0  0  0  0  0  0  0  0  0  0  0
   30.1933    6.5372    6.0656 C   0  0  1  0  0  0  0  0  0  0  0  0
   28.7586    5.9498    5.8924 C   0  0  2  0  0  0  0  0  0  0  0  0
   28.1251    6.6594    6.9285 O   0  0  0  0  0  0  0  0  0  0  0  0
   28.5978    4.4291    5.8705 C   0  0  0  0  0  0  0  0  0  0  0  0
   29.4418    3.9562    4.8377 O   0  0  0  0  0  0  0  0  0  0  0  0
   31.5970    8.3203    5.1308 C   0  0  2  0  0  0  0  0  0  0  0  0
   30.3401    7.8986    5.4563 O   0  0  0  0  0  0  0  0  0  0  0  0
   31.6105    9.7460    4.6636 C   0  0  1  0  0  0  0  0  0  0  0  0
   34.2317    5.3986    2.9286 N   0  0  0  0  0  0  0  0  0  0  0  0
   23.8866   12.8919    8.0560 O   0  0  0  0  0  0  0  0  0  0  0  0
   33.0809   10.1494    4.2570 C   0  0  2  0  0  0  0  0  0  0  0  0
   33.7064    9.2231    3.1573 C   0  0  1  0  0  0  0  0  0  0  0  0
   33.6913    7.8598    3.6333 C   0  0  1  0  0  0  0  0  0  0  0  0
   32.2870    7.4469    4.0316 O   0  0  0  0  0  0  0  0  0  0  0  0
   34.2785    6.8761    2.5285 C   0  0  0  0  0  0  0  0  0  0  0  0
   30.7881    9.8897    3.5281 N   0  0  0  0  0  0  0  0  0  0  0  0
   29.4238    1.6889   11.3199 O   0  0  0  0  0  0  0  0  0  0  0  0
   22.6127   12.2947    9.8393 C   0  0  0  0  0  0  0  0  0  0  0  0
   33.0578    9.2943    2.2130 O   0  0  0  0  0  0  0  0  0  0  0  0
   33.7488   10.0546    5.1887 O   0  0  0  0  0  0  0  0  0  0  0  0
   24.2756   10.7261    9.2270 C   0  0  0  0  0  0  0  0  0  0  0  0
   22.3416   13.5729   10.2736 C   0  0  0  0  0  0  0  0  0  0  0  0
   23.8494   12.2805    9.3437 C   0  0  1  0  0  0  0  0  0  0  0  0
   27.4867    1.2125   13.0868 F   0  0  0  0  0  0  0  0  0  0  0  0
  1  2  1  6  0  0  0
  1 10  1  0  0  0  0
  1  3  1  0  0  0  0
  3  4  1  6  0  0  0
  3  6  1  0  0  0  0
  5 46  2  0  0  0  0
  6 42  1  1  0  0  0
  6  8  1  0  0  0  0
  7 47  1  0  0  0  0
  8  9  1  0  0  0  0
  8 49  1  1  0  0  0
  9 10  1  0  0  0  0
  9 11  1  1  0  0  0
 11 12  1  0  0  0  0
 13 14  1  1  0  0  0
 13 15  1  0  0  0  0
 13 21  1  0  0  0  0
 14 46  1  0  0  0  0
 15 16  1  0  0  0  0
 16 17  1  1  0  0  0
 16 18  1  0  0  0  0
 18  2  1  6  0  0  0
 18 19  1  0  0  0  0
 19 20  1  6  0  0  0
 19 21  1  0  0  0  0
 21 22  1  6  0  0  0
 23 20  1  1  0  0  0
 23 24  1  0  0  0  0
 23 28  1  0  0  0  0
 24 25  1  6  0  0  0
 24 26  1  0  0  0  0
 26 27  1  0  0  0  0
 26 32  1  6  0  0  0
 27 28  1  0  0  0  0
 27 29  1  1  0  0  0
 29 30  1  0  0  0  0
 31 32  1  6  0  0  0
 31 33  1  0  0  0  0
 31 39  1  0  0  0  0
 33 36  1  0  0  0  0
 33 41  1  6  0  0  0
 34 40  1  0  0  0  0
 35 48  1  0  0  0  0
 36 37  1  0  0  0  0
 36 45  1  1  0  0  0
 37 38  1  0  0  0  0
 37 44  1  6  0  0  0
 38 39  1  0  0  0  0
 38 40  1  6  0  0  0
 43 47  1  0  0  0  0
 46 48  1  0  0  0  0
 48 43  1  6  0  0  0
M  END
>  <CHROM.1>
-148.62076525,-56.18411938,-174.23747691,-152.62971097,-174.77038182,-174.74096854
83.58144449,-55.92175907,-174.16508007,-177.06364260,67.16176685,-75.78668733
-39.65334553,28.34780008,7.22133032,8.51878302,-2.55812498,0.67555323,-0.58863648

>  <Name>
ligand

>  <RI>
0

>  <Rbt.Current_Directory>
/home/itssahil/PROJECTS/Mol_Feturizer/New_Systems/rnas/4PDQ

>  <Rbt.Executable>
rbdock ($Id: //depot/dev/client3/rdock/2013.1/src/exe/rbdock.cxx#4 $)

>  <Rbt.Library>
libRbt.so (2013.1, Build901 2013/11/27)

>  <Rbt.Parameter_File>
/export/apps/rDock/src/rDock_2013.1_src/data/scripts/dock_solv.prm

>  <Rbt.Receptor>
prm/pocket_docking_8.prm

>  <SCORE>
-10.4836

>  <SCORE.INTER>
-2.10244

>  <SCORE.INTER.CONST>
1

>  <SCORE.INTER.POLAR>
0

>  <SCORE.INTER.ROT>
13

>  <SCORE.INTER.SOLV>
20.6018

>  <SCORE.INTER.VDW>
-20.5356

>  <SCORE.INTER.norm>
-0.042907

>  <SCORE.INTRA>
-8.38118

>  <SCORE.INTRA.DIHEDRAL>
-23.8839

>  <SCORE.INTRA.DIHEDRAL.0>
34.5115

>  <SCORE.INTRA.POLAR>
0

>  <SCORE.INTRA.POLAR.0>
0

>  <SCORE.INTRA.REPUL>
0

>  <SCORE.INTRA.REPUL.0>
0

>  <SCORE.INTRA.SOLV>
-1.43618

>  <SCORE.INTRA.SOLV.lig_0>
-122.812

>  <SCORE.INTRA.VDW>
4.27885

>  <SCORE.INTRA.VDW.0>
-7.46208

>  <SCORE.INTRA.norm>
-0.171044

>  <SCORE.RESTR>
0

>  <SCORE.RESTR.CAVITY>
0

>  <SCORE.RESTR.norm>
0

>  <SCORE.SYSTEM>
0

>  <SCORE.SYSTEM.CONST>
0

>  <SCORE.SYSTEM.DIHEDRAL>
0

>  <SCORE.SYSTEM.SOLV>
0

>  <SCORE.SYSTEM.norm>
0

>  <SCORE.heavy>
49

>  <SCORE.norm>
-0.213952

>  <RMSD>
11.996

$$$$
ligand
 OpenBabel11021811513D
libRbt.so/2013.1/901 2013/11/27
 49 52  0  0  0  0  0  0  0  0999 V2000
   25.9626   12.5168   13.2049 C   0  0  2  0  0  0  0  0  0  0  0  0
   26.9683   13.4820   13.2984 O   0  0  0  0  0  0  0  0  0  0  0  0
   26.1133   11.4778   14.3775 C   0  0  2  0  0  0  0  0  0  0  0  0
   26.0229   12.2102   15.7071 N   0  0  0  0  0  0  0  0  0  0  0  0
   23.8595   18.9616   10.6155 O   0  0  0  0  0  0  0  0  0  0  0  0
   27.4483   10.7080   14.2469 C   0  0  2  0  0  0  0  0  0  0  0  0
   23.8862   19.3760    7.9933 N   0  0  0  0  0  0  0  0  0  0  0  0
   27.5247    9.9931   12.8887 C   0  0  2  0  0  0  0  0  0  0  0  0
   27.3745   11.0104   11.6794 C   0  0  2  0  0  0  0  0  0  0  0  0
   26.0702   11.7844   11.8794 O   0  0  0  0  0  0  0  0  0  0  0  0
   27.3971   10.2730   10.3093 C   0  0  0  0  0  0  0  0  0  0  0  0
   28.5570    9.4817   10.1030 N   0  0  0  0  0  0  0  0  0  0  0  0
   25.9839   17.4834   11.9483 C   0  0  2  0  0  0  0  0  0  0  0  0
   26.1682   18.8540   11.3875 N   0  0  0  0  0  0  0  0  0  0  0  0
   27.1615   17.2499   13.0137 C   0  0  0  0  0  0  0  0  0  0  0  0
   27.0282   15.8281   13.6762 C   0  0  2  0  0  0  0  0  0  0  0  0
   28.1136   15.5940   14.6400 N   0  0  0  0  0  0  0  0  0  0  0  0
   27.0946   14.7282   12.5978 C   0  0  2  0  0  0  0  0  0  0  0  0
   25.9477   14.9319   11.5273 C   0  0  2  0  0  0  0  0  0  0  0  0
   26.0922   13.8334   10.5517 O   0  0  0  0  0  0  0  0  0  0  0  0
   26.1455   16.3669   10.8179 C   0  0  1  0  0  0  0  0  0  0  0  0
   25.1325   16.5236    9.8751 O   0  0  0  0  0  0  0  0  0  0  0  0
   25.4245   13.6715    9.4605 C   0  0  1  0  0  0  0  0  0  0  0  0
   25.2013   12.1954    9.0181 C   0  0  2  0  0  0  0  0  0  0  0  0
   26.2527   11.8308    8.1805 O   0  0  0  0  0  0  0  0  0  0  0  0
   23.9475   12.3786    8.2681 C   0  0  1  0  0  0  0  0  0  0  0  0
   23.0652   13.4075    9.0402 C   0  0  2  0  0  0  0  0  0  0  0  0
   24.0898   14.2751    9.4597 O   0  0  0  0  0  0  0  0  0  0  0  0
   22.1013   12.8791   10.1036 C   0  0  0  0  0  0  0  0  0  0  0  0
   21.5278   14.0170   10.7191 O   0  0  0  0  0  0  0  0  0  0  0  0
   24.9459   14.0755    6.8028 C   0  0  2  0  0  0  0  0  0  0  0  0
   24.3368   12.8579    6.9024 O   0  0  0  0  0  0  0  0  0  0  0  0
   24.8112   14.6630    5.4288 C   0  0  1  0  0  0  0  0  0  0  0  0
   28.9231   14.5153    8.8552 N   0  0  0  0  0  0  0  0  0  0  0  0
   26.3325   21.5564   11.0077 O   0  0  0  0  0  0  0  0  0  0  0  0
   25.5790   16.0404    5.3712 C   0  0  2  0  0  0  0  0  0  0  0  0
   27.0949   15.9327    5.7575 C   0  0  1  0  0  0  0  0  0  0  0  0
   27.1983   15.3747    7.0854 C   0  0  1  0  0  0  0  0  0  0  0  0
   26.4669   14.0483    7.1676 O   0  0  0  0  0  0  0  0  0  0  0  0
   28.7248   15.2060    7.5029 C   0  0  0  0  0  0  0  0  0  0  0  0
   25.3893   13.8002    4.4761 N   0  0  0  0  0  0  0  0  0  0  0  0
   27.5153    9.9331   15.0844 O   0  0  0  0  0  0  0  0  0  0  0  0
   25.7728   20.8114    8.9360 C   0  0  0  0  0  0  0  0  0  0  0  0
   27.6075   15.2230    5.0151 O   0  0  0  0  0  0  0  0  0  0  0  0
   25.0933   16.7533    6.1322 O   0  0  0  0  0  0  0  0  0  0  0  0
   24.9783   19.4828   10.7261 C   0  0  0  0  0  0  0  0  0  0  0  0
   24.6904   20.5367    8.1305 C   0  0  0  0  0  0  0  0  0  0  0  0
   25.3308   20.9637   10.1838 C   0  0  1  0  0  0  0  0  0  0  0  0
   26.4951    9.0405   12.7901 F   0  0  0  0  0  0  0  0  0  0  0  0
  1  2  1  1  0  0  0
  1 10  1  0  0  0  0
  1  3  1  0  0  0  0
  3  4  1  1  0  0  0
  3  6  1  0  0  0  0
  5 46  2  0  0  0  0
  6 42  1  1  0  0  0
  6  8  1  0  0  0  0
  7 47  1  0  0  0  0
  8  9  1  0  0  0  0
  8 49  1  1  0  0  0
  9 10  1  0  0  0  0
  9 11  1  6  0  0  0
 11 12  1  0  0  0  0
 13 14  1  6  0  0  0
 13 15  1  0  0  0  0
 13 21  1  0  0  0  0
 14 46  1  0  0  0  0
 15 16  1  0  0  0  0
 16 17  1  1  0  0  0
 16 18  1  0  0  0  0
 18  2  1  1  0  0  0
 18 19  1  0  0  0  0
 19 20  1  6  0  0  0
 19 21  1  0  0  0  0
 21 22  1  6  0  0  0
 23 20  1  1  0  0  0
 23 24  1  0  0  0  0
 23 28  1  0  0  0  0
 24 25  1  6  0  0  0
 24 26  1  0  0  0  0
 26 27  1  0  0  0  0
 26 32  1  6  0  0  0
 27 28  1  0  0  0  0
 27 29  1  1  0  0  0
 29 30  1  0  0  0  0
 31 32  1  6  0  0  0
 31 33  1  0  0  0  0
 31 39  1  0  0  0  0
 33 36  1  0  0  0  0
 33 41  1  6  0  0  0
 34 40  1  0  0  0  0
 35 48  1  0  0  0  0
 36 37  1  0  0  0  0
 36 45  1  1  0  0  0
 37 38  1  0  0  0  0
 37 44  1  6  0  0  0
 38 39  1  0  0  0  0
 38 40  1  6  0  0  0
 43 47  1  0  0  0  0
 46 48  1  0  0  0  0
 48 43  1  6  0  0  0
M  END
>  <CHROM.1>
-168.41763138,116.73101132,-56.35442924,-160.45822185,-174.56543598,-149.20503376
-64.57401399,174.84332513,-158.20349869,-175.36272364,-72.78123495,-166.18068972
149.10484128,25.92728288,14.61513288,10.08049534,-0.37620582,-1.40117882
0.61154443

>  <Name>
ligand

>  <RI>
0

>  <Rbt.Current_Directory>
/home/itssahil/PROJECTS/Mol_Feturizer/New_Systems/rnas/4PDQ

>  <Rbt.Executable>
rbdock ($Id: //depot/dev/client3/rdock/2013.1/src/exe/rbdock.cxx#4 $)

>  <Rbt.Library>
libRbt.so (2013.1, Build901 2013/11/27)

>  <Rbt.Parameter_File>
/export/apps/rDock/src/rDock_2013.1_src/data/scripts/dock_solv.prm

>  <Rbt.Receptor>
prm/blind_docking_80.prm

>  <SCORE>
1.41927

>  <SCORE.INTER>
-3.87649

>  <SCORE.INTER.CONST>
1

>  <SCORE.INTER.POLAR>
0

>  <SCORE.INTER.ROT>
13

>  <SCORE.INTER.SOLV>
35.3307

>  <SCORE.INTER.VDW>
-26.6279

>  <SCORE.INTER.norm>
-0.0791121

>  <SCORE.INTRA>
1.45936

>  <SCORE.INTRA.DIHEDRAL>
-17.2257

>  <SCORE.INTRA.DIHEDRAL.0>
34.5115

>  <SCORE.INTRA.POLAR>
0

>  <SCORE.INTRA.POLAR.0>
0

>  <SCORE.INTRA.REPUL>
0.0946022

>  <SCORE.INTRA.REPUL.0>
0

>  <SCORE.INTRA.SOLV>
6.01329

>  <SCORE.INTRA.SOLV.lig_0>
-122.812

>  <SCORE.INTRA.VDW>
6.59255

>  <SCORE.INTRA.VDW.0>
-7.46208

>  <SCORE.INTRA.norm>
0.0297829

>  <SCORE.RESTR>
3.83641

>  <SCORE.RESTR.CAVITY>
3.83641

>  <SCORE.RESTR.norm>
0.078294

>  <SCORE.SYSTEM>
0

>  <SCORE.SYSTEM.CONST>
0

>  <SCORE.SYSTEM.DIHEDRAL>
0

>  <SCORE.SYSTEM.SOLV>
0

>  <SCORE.SYSTEM.norm>
0

>  <SCORE.heavy>
49

>  <SCORE.norm>
0.0289648

>  <RMSD>
12.000

$$$$
ligand
 OpenBabel11021811513D
libRbt.so/2013.1/901 2013/11/27
 49 52  0  0  0  0  0  0  0  0999 V2000
   27.6178   16.0203   12.4171 C   0  0  2  0  0  0  0  0  0  0  0  0
   27.0593   15.1768   13.3808 O   0  0  0  0  0  0  0  0  0  0  0  0
   28.3051   17.2489   13.1211 C   0  0  2  0  0  0  0  0  0  0  0  0
   29.3806   16.7424   14.0693 N   0  0  0  0  0  0  0  0  0  0  0  0
   28.2239    8.5680   11.8438 O   0  0  0  0  0  0  0  0  0  0  0  0
   27.2516   18.1013   13.8663 C   0  0  2  0  0  0  0  0  0  0  0  0
   28.7210    4.4806   11.5434 N   0  0  0  0  0  0  0  0  0  0  0  0
   26.1658   18.5845   12.8921 C   0  0  2  0  0  0  0  0  0  0  0  0
   25.4502   17.3713   12.1602 C   0  0  2  0  0  0  0  0  0  0  0  0
   26.5335   16.5290   11.4841 O   0  0  0  0  0  0  0  0  0  0  0  0
   24.3910   17.8699   11.1349 C   0  0  0  0  0  0  0  0  0  0  0  0
   23.4411   16.8823   10.7656 N   0  0  0  0  0  0  0  0  0  0  0  0
   26.6882   10.9352   12.5601 C   0  0  2  0  0  0  0  0  0  0  0  0
   26.1135    9.5580   12.5537 N   0  0  0  0  0  0  0  0  0  0  0  0
   26.5658   11.4880   14.0620 C   0  0  0  0  0  0  0  0  0  0  0  0
   27.1750   12.9359   14.1651 C   0  0  2  0  0  0  0  0  0  0  0  0
   27.0505   13.4617   15.5326 N   0  0  0  0  0  0  0  0  0  0  0  0
   26.4367   13.8950   13.2101 C   0  0  2  0  0  0  0  0  0  0  0  0
   26.5346   13.3759   11.7188 C   0  0  2  0  0  0  0  0  0  0  0  0
   25.8094   14.3590   10.8899 O   0  0  0  0  0  0  0  0  0  0  0  0
   25.8458   11.9204   11.6273 C   0  0  1  0  0  0  0  0  0  0  0  0
   25.9350   11.4850   10.3074 O   0  0  0  0  0  0  0  0  0  0  0  0
   25.8684   14.4875    9.6082 C   0  0  1  0  0  0  0  0  0  0  0  0
   27.0574   13.7631    8.9109 C   0  0  2  0  0  0  0  0  0  0  0  0
   28.1248   14.6548    8.8380 O   0  0  0  0  0  0  0  0  0  0  0  0
   26.4391   13.5467    7.5922 C   0  0  1  0  0  0  0  0  0  0  0  0
   24.9412   13.1716    7.8134 C   0  0  2  0  0  0  0  0  0  0  0  0
   24.6742   14.0384    8.8885 O   0  0  0  0  0  0  0  0  0  0  0  0
   24.5836   11.6946    7.9853 C   0  0  0  0  0  0  0  0  0  0  0  0
   24.7777   11.0901    6.7206 O   0  0  0  0  0  0  0  0  0  0  0  0
   25.6277   15.7671    6.9328 C   0  0  2  0  0  0  0  0  0  0  0  0
   26.6103   14.8251    6.8289 O   0  0  0  0  0  0  0  0  0  0  0  0
   24.9644   16.0381    5.6146 C   0  0  1  0  0  0  0  0  0  0  0  0
   24.6781   20.5736    8.7275 N   0  0  0  0  0  0  0  0  0  0  0  0
   24.8945    7.1888   11.8778 O   0  0  0  0  0  0  0  0  0  0  0  0
   23.8790   17.1688    5.7978 C   0  0  2  0  0  0  0  0  0  0  0  0
   24.4534   18.5029    6.3886 C   0  0  1  0  0  0  0  0  0  0  0  0
   25.0772   18.2186    7.6597 C   0  0  1  0  0  0  0  0  0  0  0  0
   26.1260   17.1328    7.5107 O   0  0  0  0  0  0  0  0  0  0  0  0
   25.7143   19.5399    8.2770 C   0  0  0  0  0  0  0  0  0  0  0  0
   25.9159   16.4931    4.6798 N   0  0  0  0  0  0  0  0  0  0  0  0
   27.7681   19.0074   14.3338 O   0  0  0  0  0  0  0  0  0  0  0  0
   26.8784    6.2312   11.3234 C   0  0  0  0  0  0  0  0  0  0  0  0
   25.2491   18.9052    5.6658 O   0  0  0  0  0  0  0  0  0  0  0  0
   23.0892   16.7897    6.5432 O   0  0  0  0  0  0  0  0  0  0  0  0
   27.0318    8.4407   12.1572 C   0  0  0  0  0  0  0  0  0  0  0  0
   27.8103    5.4709   11.9938 C   0  0  0  0  0  0  0  0  0  0  0  0
   26.2702    7.0165   12.2115 C   0  0  1  0  0  0  0  0  0  0  0  0
   26.7376   19.4127   11.9100 F   0  0  0  0  0  0  0  0  0  0  0  0
  1  2  1  1  0  0  0
  1 10  1  0  0  0  0
  1  3  1  0  0  0  0
  3  4  1  1  0  0  0
  3  6  1  0  0  0  0
  5 46  2  0  0  0  0
  6 42  1  6  0  0  0
  6  8  1  0  0  0  0
  7 47  1  0  0  0  0
  8  9  1  0  0  0  0
  8 49  1  6  0  0  0
  9 10  1  0  0  0  0
  9 11  1  6  0  0  0
 11 12  1  0  0  0  0
 13 14  1  1  0  0  0
 13 15  1  0  0  0  0
 13 21  1  0  0  0  0
 14 46  1  0  0  0  0
 15 16  1  0  0  0  0
 16 17  1  1  0  0  0
 16 18  1  0  0  0  0
 18  2  1  6  0  0  0
 18 19  1  0  0  0  0
 19 20  1  6  0  0  0
 19 21  1  0  0  0  0
 21 22  1  6  0  0  0
 23 20  1  1  0  0  0
 23 24  1  0  0  0  0
 23 28  1  0  0  0  0
 24 25  1  6  0  0  0
 24 26  1  0  0  0  0
 26 27  1  0  0  0  0
 26 32  1  6  0  0  0
 27 28  1  0  0  0  0
 27 29  1  1  0  0  0
 29 30  1  0  0  0  0
 31 32  1  6  0  0  0
 31 33  1  0  0  0  0
 31 39  1  0  0  0  0
 33 36  1  0  0  0  0
 33 41  1  6  0  0  0
 34 40  1  0  0  0  0
 35 48  1  0  0  0  0
 36 37  1  0  0  0  0
 36 45  1  1  0  0  0
 37 38  1  0  0  0  0
 37 44  1  6  0  0  0
 38 39  1  0  0  0  0
 38 40  1  6  0  0  0
 43 47  1  0  0  0  0
 46 48  1  0  0  0  0
 48 43  1  6  0  0  0
M  END
>  <CHROM.1>
-174.32852881,125.98397312,-161.18314821,-119.38192269,164.41208431,-15.15276977
-90.02908020,-70.09153954,-117.26161510,68.93912494,179.76105864,-144.49553041
-148.52229852,26.16129321,14.24340592,10.34815221,-2.03877637,1.26638121
-3.01134012

>  <Name>
ligand

>  <RI>
0

>  <Rbt.Current_Directory>
/home/itssahil/PROJECTS/Mol_Feturizer/New_Systems/rnas/4PDQ

>  <Rbt.Executable>
rbdock ($Id: //depot/dev/client3/rdock/2013.1/src/exe/rbdock.cxx#4 $)

>  <Rbt.Library>
libRbt.so (2013.1, Build901 2013/11/27)

>  <Rbt.Parameter_File>
/export/apps/rDock/src/rDock_2013.1_src/data/scripts/dock_solv.prm

>  <Rbt.Receptor>
prm/blind_docking_60.prm

>  <SCORE>
4.33514

>  <SCORE.INTER>
-0.963803

>  <SCORE.INTER.CONST>
1

>  <SCORE.INTER.POLAR>
0

>  <SCORE.INTER.ROT>
13

>  <SCORE.INTER.SOLV>
31.5546

>  <SCORE.INTER.VDW>
-23.4274

>  <SCORE.INTER.norm>
-0.0196695

>  <SCORE.INTRA>
4.06058

>  <SCORE.INTRA.DIHEDRAL>
-1.45853

>  <SCORE.INTRA.DIHEDRAL.0>
34.5115

>  <SCORE.INTRA.POLAR>
0

>  <SCORE.INTRA.POLAR.0>
0

>  <SCORE.INTRA.REPUL>
0

>  <SCORE.INTRA.REPUL.0>
0

>  <SCORE.INTRA.SOLV>
0.661563

>  <SCORE.INTRA.SOLV.lig_0>
-122.812

>  <SCORE.INTRA.VDW>
4.45907

>  <SCORE.INTRA.VDW.0>
-7.46208

>  <SCORE.INTRA.norm>
0.0828691

>  <SCORE.RESTR>
1.23836

>  <SCORE.RESTR.CAVITY>
1.23836

>  <SCORE.RESTR.norm>
0.0252726

>  <SCORE.SYSTEM>
0

>  <SCORE.SYSTEM.CONST>
0

>  <SCORE.SYSTEM.DIHEDRAL>
0

>  <SCORE.SYSTEM.SOLV>
0

>  <SCORE.SYSTEM.norm>
0

>  <SCORE.heavy>
49

>  <SCORE.norm>
0.0884722

>  <RMSD>
12.037

$$$$
ligand
 OpenBabel11021811513D
libRbt.so/2013.1/901 2013/11/27
 49 52  0  0  0  0  0  0  0  0999 V2000
   27.3748   15.6388   12.9684 C   0  0  2  0  0  0  0  0  0  0  0  0
   26.3144   14.8403   13.4042 O   0  0  0  0  0  0  0  0  0  0  0  0
   27.7913   16.6380   14.1109 C   0  0  2  0  0  0  0  0  0  0  0  0
   28.1968   15.8448   15.3434 N   0  0  0  0  0  0  0  0  0  0  0  0
   28.4058    9.0037   10.4487 O   0  0  0  0  0  0  0  0  0  0  0  0
   26.6319   17.6126   14.4233 C   0  0  2  0  0  0  0  0  0  0  0  0
   24.9847    7.9689   11.2477 N   0  0  0  0  0  0  0  0  0  0  0  0
   26.2270   18.3874   13.1595 C   0  0  2  0  0  0  0  0  0  0  0  0
   25.8014   17.4113   11.9823 C   0  0  2  0  0  0  0  0  0  0  0  0
   26.9547   16.4344   11.7456 O   0  0  0  0  0  0  0  0  0  0  0  0
   25.4463   18.2004   10.6890 C   0  0  0  0  0  0  0  0  0  0  0  0
   25.6244   17.4543    9.4949 N   0  0  0  0  0  0  0  0  0  0  0  0
   27.2839   10.7059   12.5268 C   0  0  2  0  0  0  0  0  0  0  0  0
   27.2122    9.2157   12.5625 N   0  0  0  0  0  0  0  0  0  0  0  0
   27.1937   11.2167   14.0458 C   0  0  0  0  0  0  0  0  0  0  0  0
   27.2871   12.7871   14.1031 C   0  0  2  0  0  0  0  0  0  0  0  0
   27.1853   13.2689   15.4885 N   0  0  0  0  0  0  0  0  0  0  0  0
   26.1429   13.4202   13.2864 C   0  0  2  0  0  0  0  0  0  0  0  0
   26.2004   12.9331   11.7823 C   0  0  2  0  0  0  0  0  0  0  0  0
   25.0780   13.5959   11.0894 O   0  0  0  0  0  0  0  0  0  0  0  0
   26.0370   11.3289   11.7473 C   0  0  1  0  0  0  0  0  0  0  0  0
   26.0823   10.9212   10.4164 O   0  0  0  0  0  0  0  0  0  0  0  0
   25.0486   13.9927    9.8628 C   0  0  1  0  0  0  0  0  0  0  0  0
   25.0015   12.8657    8.7894 C   0  0  2  0  0  0  0  0  0  0  0  0
   26.3110   12.5503    8.4351 O   0  0  0  0  0  0  0  0  0  0  0  0
   24.3136   13.6095    7.7209 C   0  0  1  0  0  0  0  0  0  0  0  0
   23.2184   14.5044    8.3791 C   0  0  2  0  0  0  0  0  0  0  0  0
   23.9336   14.8824    9.5298 O   0  0  0  0  0  0  0  0  0  0  0  0
   21.8215   13.9127    8.5727 C   0  0  0  0  0  0  0  0  0  0  0  0
   20.9974   14.9771    9.0093 O   0  0  0  0  0  0  0  0  0  0  0  0
   25.0168   15.6307    6.5194 C   0  0  2  0  0  0  0  0  0  0  0  0
   25.3670   14.4075    7.0141 O   0  0  0  0  0  0  0  0  0  0  0  0
   26.1795   16.3375    5.8871 C   0  0  1  0  0  0  0  0  0  0  0  0
   22.1555   18.1386    8.9686 N   0  0  0  0  0  0  0  0  0  0  0  0
   28.9394    6.3204   11.9934 O   0  0  0  0  0  0  0  0  0  0  0  0
   25.7166   17.7600    5.3849 C   0  0  2  0  0  0  0  0  0  0  0  0
   25.0993   18.6561    6.5140 C   0  0  1  0  0  0  0  0  0  0  0  0
   23.9780   17.9598    7.0999 C   0  0  1  0  0  0  0  0  0  0  0  0
   24.3970   16.5871    7.5910 O   0  0  0  0  0  0  0  0  0  0  0  0
   23.3459   18.8157    8.2835 C   0  0  0  0  0  0  0  0  0  0  0  0
   27.2062   16.5213    6.8349 N   0  0  0  0  0  0  0  0  0  0  0  0
   26.9724   18.3522   15.2254 O   0  0  0  0  0  0  0  0  0  0  0  0
   26.7701    6.6968   12.5525 C   0  0  0  0  0  0  0  0  0  0  0  0
   25.8980   18.8207    7.3218 O   0  0  0  0  0  0  0  0  0  0  0  0
   24.8945   17.6107    4.5942 O   0  0  0  0  0  0  0  0  0  0  0  0
   27.8341    8.4782   11.4144 C   0  0  0  0  0  0  0  0  0  0  0  0
   25.5285    6.8882   11.9888 C   0  0  0  0  0  0  0  0  0  0  0  0
   27.6872    6.8800   11.6034 C   0  0  1  0  0  0  0  0  0  0  0  0
   27.3059   19.1699   12.7112 F   0  0  0  0  0  0  0  0  0  0  0  0
  1  2  1  1  0  0  0
  1 10  1  0  0  0  0
  1  3  1  0  0  0  0
  3  4  1  1  0  0  0
  3  6  1  0  0  0  0
  5 46  2  0  0  0  0
  6 42  1  1  0  0  0
  6  8  1  0  0  0  0
  7 47  1  0  0  0  0
  8  9  1  0  0  0  0
  8 49  1  6  0  0  0
  9 10  1  0  0  0  0
  9 11  1  6  0  0  0
 11 12  1  0  0  0  0
 13 14  1  1  0  0  0
 13 15  1  0  0  0  0
 13 21  1  0  0  0  0
 14 46  1  0  0  0  0
 15 16  1  0  0  0  0
 16 17  1  1  0  0  0
 16 18  1  0  0  0  0
 18  2  1  6  0  0  0
 18 19  1  0  0  0  0
 19 20  1  6  0  0  0
 19 21  1  0  0  0  0
 21 22  1  6  0  0  0
 23 20  1  1  0  0  0
 23 24  1  0  0  0  0
 23 28  1  0  0  0  0
 24 25  1  6  0  0  0
 24 26  1  0  0  0  0
 26 27  1  0  0  0  0
 26 32  1  1  0  0  0
 27 28  1  0  0  0  0
 27 29  1  1  0  0  0
 29 30  1  0  0  0  0
 31 32  1  1  0  0  0
 31 33  1  0  0  0  0
 31 39  1  0  0  0  0
 33 36  1  0  0  0  0
 33 41  1  1  0  0  0
 34 40  1  0  0  0  0
 35 48  1  0  0  0  0
 36 37  1  0  0  0  0
 36 45  1  6  0  0  0
 37 38  1  0  0  0  0
 37 44  1  1  0  0  0
 38 39  1  0  0  0  0
 38 40  1  1  0  0  0
 43 47  1  0  0  0  0
 46 48  1  0  0  0  0
 48 43  1  1  0  0  0
M  END
>  <CHROM.1>
-133.89752224,63.21928125,154.09470478,-154.86928529,146.60914523,70.56441638
-146.03274904,-172.19091420,177.76788800,-179.45066528,-53.79743283,-162.64603783
74.19261155,25.84411396,14.24456326,10.51757773,-0.89578487,-1.19959335,0.20212350

>  <Name>
ligand

>  <RI>
0

>  <Rbt.Current_Directory>
/home/itssahil/PROJECTS/Mol_Feturizer/New_Systems/rnas/4PDQ

>  <Rbt.Executable>
rbdock ($Id: //depot/dev/client3/rdock/2013.1/src/exe/rbdock.cxx#4 $)

>  <Rbt.Library>
libRbt.so (2013.1, Build901 2013/11/27)

>  <Rbt.Parameter_File>
/export/apps/rDock/src/rDock_2013.1_src/data/scripts/dock_solv.prm

>  <Rbt.Receptor>
prm/blind_docking_60.prm

>  <SCORE>
5.01034

>  <SCORE.INTER>
-5.66185

>  <SCORE.INTER.CONST>
1

>  <SCORE.INTER.POLAR>
0

>  <SCORE.INTER.ROT>
13

>  <SCORE.INTER.SOLV>
30.2924

>  <SCORE.INTER.VDW>
-26.1387

>  <SCORE.INTER.norm>
-0.115548

>  <SCORE.INTRA>
9.54749

>  <SCORE.INTRA.DIHEDRAL>
-12.8753

>  <SCORE.INTRA.DIHEDRAL.0>
34.5115

>  <SCORE.INTRA.POLAR>
0

>  <SCORE.INTRA.POLAR.0>
0

>  <SCORE.INTRA.REPUL>
0.166181

>  <SCORE.INTRA.REPUL.0>
0

>  <SCORE.INTRA.SOLV>
17.7307

>  <SCORE.INTRA.SOLV.lig_0>
-122.812

>  <SCORE.INTRA.VDW>
6.2889

>  <SCORE.INTRA.VDW.0>
-7.46208

>  <SCORE.INTRA.norm>
0.194847

>  <SCORE.RESTR>
1.1247

>  <SCORE.RESTR.CAVITY>
1.1247

>  <SCORE.RESTR.norm>
0.0229531

>  <SCORE.SYSTEM>
0

>  <SCORE.SYSTEM.CONST>
0

>  <SCORE.SYSTEM.DIHEDRAL>
0

>  <SCORE.SYSTEM.SOLV>
0

>  <SCORE.SYSTEM.norm>
0

>  <SCORE.heavy>
49

>  <SCORE.norm>
0.102252

>  <RMSD>
12.046

$$$$
ligand
 OpenBabel11021811513D
libRbt.so/2013.1/901 2013/11/27
 49 52  0  0  0  0  0  0  0  0999 V2000
   25.7296   12.1091   13.6999 C   0  0  2  0  0  0  0  0  0  0  0  0
   26.2802   13.3919   13.6418 O   0  0  0  0  0  0  0  0  0  0  0  0
   26.1035   11.4326   15.0709 C   0  0  2  0  0  0  0  0  0  0  0  0
   25.5735   12.2889   16.2103 N   0  0  0  0  0  0  0  0  0  0  0  0
   22.9278   18.5869   10.6652 O   0  0  0  0  0  0  0  0  0  0  0  0
   27.6342   11.2382   15.1760 C   0  0  2  0  0  0  0  0  0  0  0  0
   25.0332   18.6406    5.8323 N   0  0  0  0  0  0  0  0  0  0  0  0
   28.1486   10.3874   14.0042 C   0  0  2  0  0  0  0  0  0  0  0  0
   27.7881   11.0381   12.6020 C   0  0  2  0  0  0  0  0  0  0  0  0
   26.2749   11.2603   12.5655 O   0  0  0  0  0  0  0  0  0  0  0  0
   28.2630   10.1437   11.4205 C   0  0  0  0  0  0  0  0  0  0  0  0
   27.5527    8.9204   11.3058 N   0  0  0  0  0  0  0  0  0  0  0  0
   25.2286   16.9980   11.4753 C   0  0  2  0  0  0  0  0  0  0  0  0
   25.3063   18.0954   10.4670 N   0  0  0  0  0  0  0  0  0  0  0  0
   26.7029   16.8132   12.0826 C   0  0  0  0  0  0  0  0  0  0  0  0
   26.7070   15.6842   13.1796 C   0  0  2  0  0  0  0  0  0  0  0  0
   28.0569   15.4914   13.7295 N   0  0  0  0  0  0  0  0  0  0  0  0
   26.2379   14.3473   12.5716 C   0  0  2  0  0  0  0  0  0  0  0  0
   24.7868   14.4961   11.9592 C   0  0  2  0  0  0  0  0  0  0  0  0
   24.4297   13.1714   11.4141 O   0  0  0  0  0  0  0  0  0  0  0  0
   24.8244   15.6111   10.7944 C   0  0  1  0  0  0  0  0  0  0  0  0
   23.5416   15.7214   10.2635 O   0  0  0  0  0  0  0  0  0  0  0  0
   24.6180   12.7511   10.2097 C   0  0  1  0  0  0  0  0  0  0  0  0
   25.5766   11.5331   10.0616 C   0  0  2  0  0  0  0  0  0  0  0  0
   26.8675   12.0191    9.8689 O   0  0  0  0  0  0  0  0  0  0  0  0
   25.0193   10.9650    8.8228 C   0  0  1  0  0  0  0  0  0  0  0  0
   23.4664   11.1014    8.8811 C   0  0  2  0  0  0  0  0  0  0  0  0
   23.3993   12.3656    9.4942 O   0  0  0  0  0  0  0  0  0  0  0  0
   22.6637    9.9623    9.5111 C   0  0  0  0  0  0  0  0  0  0  0  0
   22.8983    8.8209    8.7081 O   0  0  0  0  0  0  0  0  0  0  0  0
   25.0600   12.9331    7.3571 C   0  0  2  0  0  0  0  0  0  0  0  0
   25.6273   11.7373    7.6913 O   0  0  0  0  0  0  0  0  0  0  0  0
   24.4572   12.9073    5.9834 C   0  0  1  0  0  0  0  0  0  0  0  0
   27.9366   16.2536    6.5845 N   0  0  0  0  0  0  0  0  0  0  0  0
   24.7301   21.1707    9.7058 O   0  0  0  0  0  0  0  0  0  0  0  0
   23.8675   14.3310    5.6440 C   0  0  2  0  0  0  0  0  0  0  0  0
   24.9212   15.4882    5.7409 C   0  0  1  0  0  0  0  0  0  0  0  0
   25.4794   15.4991    7.0728 C   0  0  1  0  0  0  0  0  0  0  0  0
   26.0535   14.1397    7.4242 O   0  0  0  0  0  0  0  0  0  0  0  0
   26.5885   16.6330    7.2041 C   0  0  0  0  0  0  0  0  0  0  0  0
   25.4475   12.6051    5.0272 N   0  0  0  0  0  0  0  0  0  0  0  0
   27.8763   10.7095   16.1599 O   0  0  0  0  0  0  0  0  0  0  0  0
   25.2073   19.5190    8.2211 C   0  0  0  0  0  0  0  0  0  0  0  0
   25.7609   15.2764    4.9877 O   0  0  0  0  0  0  0  0  0  0  0  0
   23.0430   14.5691    6.4100 O   0  0  0  0  0  0  0  0  0  0  0  0
   24.0316   18.8200   10.1524 C   0  0  0  0  0  0  0  0  0  0  0  0
   24.5652   18.9838    7.1269 C   0  0  0  0  0  0  0  0  0  0  0  0
   24.2800   19.9828    9.0580 C   0  0  1  0  0  0  0  0  0  0  0  0
   27.5721    9.1058   14.0535 F   0  0  0  0  0  0  0  0  0  0  0  0
  1  2  1  1  0  0  0
  1 10  1  0  0  0  0
  1  3  1  0  0  0  0
  3  4  1  1  0  0  0
  3  6  1  0  0  0  0
  5 46  2  0  0  0  0
  6 42  1  1  0  0  0
  6  8  1  0  0  0  0
  7 47  1  0  0  0  0
  8  9  1  0  0  0  0
  8 49  1  6  0  0  0
  9 10  1  0  0  0  0
  9 11  1  6  0  0  0
 11 12  1  0  0  0  0
 13 14  1  6  0  0  0
 13 15  1  0  0  0  0
 13 21  1  0  0  0  0
 14 46  1  0  0  0  0
 15 16  1  0  0  0  0
 16 17  1  6  0  0  0
 16 18  1  0  0  0  0
 18  2  1  1  0  0  0
 18 19  1  0  0  0  0
 19 20  1  6  0  0  0
 19 21  1  0  0  0  0
 21 22  1  1  0  0  0
 23 20  1  1  0  0  0
 23 24  1  0  0  0  0
 23 28  1  0  0  0  0
 24 25  1  6  0  0  0
 24 26  1  0  0  0  0
 26 27  1  0  0  0  0
 26 32  1  6  0  0  0
 27 28  1  0  0  0  0
 27 29  1  1  0  0  0
 29 30  1  0  0  0  0
 31 32  1  6  0  0  0
 31 33  1  0  0  0  0
 31 39  1  0  0  0  0
 33 36  1  0  0  0  0
 33 41  1  6  0  0  0
 34 40  1  0  0  0  0
 35 48  1  0  0  0  0
 36 37  1  0  0  0  0
 36 45  1  1  0  0  0
 37 38  1  0  0  0  0
 37 44  1  6  0  0  0
 38 39  1  0  0  0  0
 38 40  1  6  0  0  0
 43 47  1  0  0  0  0
 46 48  1  0  0  0  0
 48 43  1  6  0  0  0
M  END
>  <CHROM.1>
177.58259644,166.82426410,68.20978735,-156.72964417,-92.10675073,117.03516600
-82.75262657,-62.61195681,-114.79156027,-78.12313026,163.54825930,-144.31544751
94.53489276,25.51128067,13.95667000,10.15876286,-0.60253130,-1.31002139,0.21145318

>  <Name>
ligand

>  <RI>
0

>  <Rbt.Current_Directory>
/home/itssahil/PROJECTS/Mol_Feturizer/New_Systems/rnas/4PDQ

>  <Rbt.Executable>
rbdock ($Id: //depot/dev/client3/rdock/2013.1/src/exe/rbdock.cxx#4 $)

>  <Rbt.Library>
libRbt.so (2013.1, Build901 2013/11/27)

>  <Rbt.Parameter_File>
/export/apps/rDock/src/rDock_2013.1_src/data/scripts/dock_solv.prm

>  <Rbt.Receptor>
prm/blind_docking_80.prm

>  <SCORE>
8.34244

>  <SCORE.INTER>
0.361295

>  <SCORE.INTER.CONST>
1

>  <SCORE.INTER.POLAR>
0

>  <SCORE.INTER.ROT>
13

>  <SCORE.INTER.SOLV>
31.5268

>  <SCORE.INTER.VDW>
-22.5347

>  <SCORE.INTER.norm>
0.00737337

>  <SCORE.INTRA>
3.43046

>  <SCORE.INTRA.DIHEDRAL>
-5.72836

>  <SCORE.INTRA.DIHEDRAL.0>
34.5115

>  <SCORE.INTRA.POLAR>
0

>  <SCORE.INTRA.POLAR.0>
0

>  <SCORE.INTRA.REPUL>
0

>  <SCORE.INTRA.REPUL.0>
0

>  <SCORE.INTRA.SOLV>
6.43802

>  <SCORE.INTRA.SOLV.lig_0>
-122.812

>  <SCORE.INTRA.VDW>
3.07563

>  <SCORE.INTRA.VDW.0>
-7.46208

>  <SCORE.INTRA.norm>
0.0700095

>  <SCORE.RESTR>
4.55068

>  <SCORE.RESTR.CAVITY>
4.55068

>  <SCORE.RESTR.norm>
0.092871

>  <SCORE.SYSTEM>
0

>  <SCORE.SYSTEM.CONST>
0

>  <SCORE.SYSTEM.DIHEDRAL>
0

>  <SCORE.SYSTEM.SOLV>
0

>  <SCORE.SYSTEM.norm>
0

>  <SCORE.heavy>
49

>  <SCORE.norm>
0.170254

>  <RMSD>
12.056

$$$$
ligand
 OpenBabel11021811513D
libRbt.so/2013.1/901 2013/11/27
 49 52  0  0  0  0  0  0  0  0999 V2000
   26.0461   12.6743   13.7050 C   0  0  2  0  0  0  0  0  0  0  0  0
   26.7393   13.4399   12.7641 O   0  0  0  0  0  0  0  0  0  0  0  0
   27.0389   12.1778   14.8208 C   0  0  2  0  0  0  0  0  0  0  0  0
   27.6817   13.3834   15.4885 N   0  0  0  0  0  0  0  0  0  0  0  0
   25.5203   17.6114    8.9932 O   0  0  0  0  0  0  0  0  0  0  0  0
   28.1037   11.2347   14.2136 C   0  0  2  0  0  0  0  0  0  0  0  0
   21.9878   18.2135    9.4845 N   0  0  0  0  0  0  0  0  0  0  0  0
   27.4300   10.0356   13.5281 C   0  0  2  0  0  0  0  0  0  0  0  0
   26.4181   10.4978   12.3958 C   0  0  2  0  0  0  0  0  0  0  0  0
   25.4192   11.4678   13.0295 O   0  0  0  0  0  0  0  0  0  0  0  0
   25.6987    9.2813   11.7444 C   0  0  0  0  0  0  0  0  0  0  0  0
   26.5847    8.3041   11.2210 N   0  0  0  0  0  0  0  0  0  0  0  0
   24.7825   17.1813   11.7763 C   0  0  2  0  0  0  0  0  0  0  0  0
   24.4373   18.4209   11.0205 N   0  0  0  0  0  0  0  0  0  0  0  0
   26.3843   17.0847   11.8130 C   0  0  0  0  0  0  0  0  0  0  0  0
   26.8389   15.8103   12.6177 C   0  0  2  0  0  0  0  0  0  0  0  0
   28.3049   15.6996   12.6413 N   0  0  0  0  0  0  0  0  0  0  0  0
   26.2689   14.5352   11.9649 C   0  0  2  0  0  0  0  0  0  0  0  0
   24.6891   14.6001   11.9091 C   0  0  2  0  0  0  0  0  0  0  0  0
   24.2450   13.3408   11.2795 O   0  0  0  0  0  0  0  0  0  0  0  0
   24.2508   15.8760   11.0252 C   0  0  1  0  0  0  0  0  0  0  0  0
   22.8592   15.9111   10.9816 O   0  0  0  0  0  0  0  0  0  0  0  0
   24.5537   12.9096   10.1041 C   0  0  1  0  0  0  0  0  0  0  0  0
   25.6091   11.7656   10.0601 C   0  0  2  0  0  0  0  0  0  0  0  0
   26.8709   12.3446    9.9485 O   0  0  0  0  0  0  0  0  0  0  0  0
   25.1899   11.1292    8.8002 C   0  0  1  0  0  0  0  0  0  0  0  0
   23.6312   11.1476    8.7414 C   0  0  2  0  0  0  0  0  0  0  0  0
   23.4242   12.4161    9.3127 O   0  0  0  0  0  0  0  0  0  0  0  0
   22.8710    9.9646    9.3427 C   0  0  0  0  0  0  0  0  0  0  0  0
   23.1933    8.8403    8.5459 O   0  0  0  0  0  0  0  0  0  0  0  0
   25.3801   13.1959    7.4904 C   0  0  2  0  0  0  0  0  0  0  0  0
   25.8214   11.9205    7.6951 O   0  0  0  0  0  0  0  0  0  0  0  0
   24.3514   13.2690    6.4006 C   0  0  1  0  0  0  0  0  0  0  0  0
   27.0035   18.0390    6.3765 N   0  0  0  0  0  0  0  0  0  0  0  0
   25.5612   20.5359    8.3289 O   0  0  0  0  0  0  0  0  0  0  0  0
   23.9252   14.7727    6.1834 C   0  0  2  0  0  0  0  0  0  0  0  0
   25.1249   15.7248    5.8474 C   0  0  1  0  0  0  0  0  0  0  0  0
   26.0955   15.6447    6.9137 C   0  0  1  0  0  0  0  0  0  0  0  0
   26.5220   14.2072    7.1431 O   0  0  0  0  0  0  0  0  0  0  0  0
   27.3544   16.5643    6.5931 C   0  0  0  0  0  0  0  0  0  0  0  0
   24.8943   12.7897    5.1915 N   0  0  0  0  0  0  0  0  0  0  0  0
   28.7862   10.8562   15.0486 O   0  0  0  0  0  0  0  0  0  0  0  0
   23.5372   19.5670    7.9758 C   0  0  0  0  0  0  0  0  0  0  0  0
   25.6121   15.3624    4.8733 O   0  0  0  0  0  0  0  0  0  0  0  0
   23.4608   15.1583    7.1627 O   0  0  0  0  0  0  0  0  0  0  0  0
   24.8917   18.4949    9.5933 C   0  0  0  0  0  0  0  0  0  0  0  0
   22.3506   19.2679    8.6072 C   0  0  0  0  0  0  0  0  0  0  0  0
   24.4329   19.8853    8.9095 C   0  0  1  0  0  0  0  0  0  0  0  0
   26.7133    9.2829   14.4753 F   0  0  0  0  0  0  0  0  0  0  0  0
  1  2  1  6  0  0  0
  1 10  1  0  0  0  0
  1  3  1  0  0  0  0
  3  4  1  6  0  0  0
  3  6  1  0  0  0  0
  5 46  2  0  0  0  0
  6 42  1  1  0  0  0
  6  8  1  0  0  0  0
  7 47  1  0  0  0  0
  8  9  1  0  0  0  0
  8 49  1  1  0  0  0
  9 10  1  0  0  0  0
  9 11  1  1  0  0  0
 11 12  1  0  0  0  0
 13 14  1  6  0  0  0
 13 15  1  0  0  0  0
 13 21  1  0  0  0  0
 14 46  1  0  0  0  0
 15 16  1  0  0  0  0
 16 17  1  6  0  0  0
 16 18  1  0  0  0  0
 18  2  1  1  0  0  0
 18 19  1  0  0  0  0
 19 20  1  6  0  0  0
 19 21  1  0  0  0  0
 21 22  1  1  0  0  0
 23 20  1  1  0  0  0
 23 24  1  0  0  0  0
 23 28  1  0  0  0  0
 24 25  1  6  0  0  0
 24 26  1  0  0  0  0
 26 27  1  0  0  0  0
 26 32  1  6  0  0  0
 27 28  1  0  0  0  0
 27 29  1  1  0  0  0
 29 30  1  0  0  0  0
 31 32  1  6  0  0  0
 31 33  1  0  0  0  0
 31 39  1  0  0  0  0
 33 36  1  0  0  0  0
 33 41  1  6  0  0  0
 34 40  1  0  0  0  0
 35 48  1  0  0  0  0
 36 37  1  0  0  0  0
 36 45  1  1  0  0  0
 37 38  1  0  0  0  0
 37 44  1  6  0  0  0
 38 39  1  0  0  0  0
 38 40  1  6  0  0  0
 43 47  1  0  0  0  0
 46 48  1  0  0  0  0
 48 43  1  6  0  0  0
M  END
>  <CHROM.1>
-149.51198992,103.84583581,-55.42311380,61.24751979,-59.46605718,103.98143593
-68.13399447,-65.70385706,-96.77263640,58.04341529,-65.88343444,-164.77350855
-53.95553925,25.40904901,14.07184017,10.09057011,-0.80547143,-1.25992027
0.10417914

>  <Name>
ligand

>  <RI>
0

>  <Rbt.Current_Directory>
/home/itssahil/PROJECTS/Mol_Feturizer/New_Systems/rnas/4PDQ

>  <Rbt.Executable>
rbdock ($Id: //depot/dev/client3/rdock/2013.1/src/exe/rbdock.cxx#4 $)

>  <Rbt.Library>
libRbt.so (2013.1, Build901 2013/11/27)

>  <Rbt.Parameter_File>
/export/apps/rDock/src/rDock_2013.1_src/data/scripts/dock_solv.prm

>  <Rbt.Receptor>
prm/blind_docking_60.prm

>  <SCORE>
3.64161

>  <SCORE.INTER>
-1.52028

>  <SCORE.INTER.CONST>
1

>  <SCORE.INTER.POLAR>
0

>  <SCORE.INTER.ROT>
13

>  <SCORE.INTER.SOLV>
30.1376

>  <SCORE.INTER.VDW>
-23.3261

>  <SCORE.INTER.norm>
-0.0310262

>  <SCORE.INTRA>
2.92564

>  <SCORE.INTRA.DIHEDRAL>
-10.1102

>  <SCORE.INTRA.DIHEDRAL.0>
34.5115

>  <SCORE.INTRA.POLAR>
0

>  <SCORE.INTRA.POLAR.0>
0

>  <SCORE.INTRA.REPUL>
0

>  <SCORE.INTRA.REPUL.0>
0

>  <SCORE.INTRA.SOLV>
10.1997

>  <SCORE.INTRA.SOLV.lig_0>
-122.812

>  <SCORE.INTRA.VDW>
2.88089

>  <SCORE.INTRA.VDW.0>
-7.46208

>  <SCORE.INTRA.norm>
0.0597069

>  <SCORE.RESTR>
2.23626

>  <SCORE.RESTR.CAVITY>
2.23626

>  <SCORE.RESTR.norm>
0.045638

>  <SCORE.SYSTEM>
0

>  <SCORE.SYSTEM.CONST>
0

>  <SCORE.SYSTEM.DIHEDRAL>
0

>  <SCORE.SYSTEM.SOLV>
0

>  <SCORE.SYSTEM.norm>
0

>  <SCORE.heavy>
49

>  <SCORE.norm>
0.0743187

>  <RMSD>
12.072

$$$$
ligand
 OpenBabel11021811513D
libRbt.so/2013.1/901 2013/11/27
 49 52  0  0  0  0  0  0  0  0999 V2000
   25.7083   16.7603   13.3260 C   0  0  2  0  0  0  0  0  0  0  0  0
   25.9267   15.7631   12.3720 O   0  0  0  0  0  0  0  0  0  0  0  0
   25.2757   18.0938   12.6106 C   0  0  2  0  0  0  0  0  0  0  0  0
   24.0086   17.8410   11.8088 N   0  0  0  0  0  0  0  0  0  0  0  0
   28.8635   10.1039   13.5279 O   0  0  0  0  0  0  0  0  0  0  0  0
   26.4187   18.6170   11.7096 C   0  0  2  0  0  0  0  0  0  0  0  0
   25.9282    8.0142   10.9335 N   0  0  0  0  0  0  0  0  0  0  0  0
   27.6928   18.8458   12.5379 C   0  0  2  0  0  0  0  0  0  0  0  0
   28.1596   17.5210   13.2771 C   0  0  2  0  0  0  0  0  0  0  0  0
   26.9826   17.0124   14.1116 O   0  0  0  0  0  0  0  0  0  0  0  0
   29.4176   17.7736   14.1575 C   0  0  0  0  0  0  0  0  0  0  0  0
   29.8297   16.6412   14.9071 N   0  0  0  0  0  0  0  0  0  0  0  0
   26.8187   11.5336   12.0282 C   0  0  2  0  0  0  0  0  0  0  0  0
   26.7609   10.0668   12.2968 N   0  0  0  0  0  0  0  0  0  0  0  0
   26.8953   12.2691   13.4528 C   0  0  0  0  0  0  0  0  0  0  0  0
   26.9845   13.8290   13.2610 C   0  0  2  0  0  0  0  0  0  0  0  0
   27.0349   14.5158   14.5601 N   0  0  0  0  0  0  0  0  0  0  0  0
   25.7522   14.3435   12.4904 C   0  0  2  0  0  0  0  0  0  0  0  0
   25.6446   13.6341   11.0804 C   0  0  2  0  0  0  0  0  0  0  0  0
   24.4475   14.1964   10.4244 O   0  0  0  0  0  0  0  0  0  0  0  0
   25.4885   12.0448   11.3071 C   0  0  1  0  0  0  0  0  0  0  0  0
   25.3875   11.4402   10.0566 O   0  0  0  0  0  0  0  0  0  0  0  0
   24.3242   14.5239    9.1833 C   0  0  1  0  0  0  0  0  0  0  0  0
   22.9583   14.1708    8.5243 C   0  0  2  0  0  0  0  0  0  0  0  0
   23.0649   12.9017    7.9605 O   0  0  0  0  0  0  0  0  0  0  0  0
   22.9336   15.2227    7.4943 C   0  0  1  0  0  0  0  0  0  0  0  0
   23.5118   16.5294    8.1201 C   0  0  2  0  0  0  0  0  0  0  0  0
   24.5279   15.9462    8.8985 O   0  0  0  0  0  0  0  0  0  0  0  0
   22.5439   17.4872    8.8165 C   0  0  0  0  0  0  0  0  0  0  0  0
   22.1471   16.8475   10.0148 O   0  0  0  0  0  0  0  0  0  0  0  0
   25.0873   15.0188    6.3353 C   0  0  2  0  0  0  0  0  0  0  0  0
   23.7567   14.7144    6.3496 O   0  0  0  0  0  0  0  0  0  0  0  0
   25.6849   14.8725    4.9668 C   0  0  1  0  0  0  0  0  0  0  0  0
   29.5304   14.0592    8.8664 N   0  0  0  0  0  0  0  0  0  0  0  0
   28.3706    7.4633   14.4738 O   0  0  0  0  0  0  0  0  0  0  0  0
   27.2294   15.1890    5.0339 C   0  0  2  0  0  0  0  0  0  0  0  0
   28.0119   14.2923    6.0548 C   0  0  1  0  0  0  0  0  0  0  0  0
   27.4255   14.4573    7.3642 C   0  0  1  0  0  0  0  0  0  0  0  0
   25.9387   14.1589    7.3268 O   0  0  0  0  0  0  0  0  0  0  0  0
   28.1624   13.5296    8.4270 C   0  0  0  0  0  0  0  0  0  0  0  0
   25.5296   13.5479    4.5113 N   0  0  0  0  0  0  0  0  0  0  0  0
   26.0962   19.6052   11.2343 O   0  0  0  0  0  0  0  0  0  0  0  0
   26.3686    7.6984   13.4264 C   0  0  0  0  0  0  0  0  0  0  0  0
   27.9001   13.1961    5.7329 O   0  0  0  0  0  0  0  0  0  0  0  0
   27.3571   16.2774    5.3835 O   0  0  0  0  0  0  0  0  0  0  0  0
   27.8936    9.4750   13.0813 C   0  0  0  0  0  0  0  0  0  0  0  0
   25.8653    7.3593   12.1905 C   0  0  0  0  0  0  0  0  0  0  0  0
   27.6814    7.8879   13.2998 C   0  0  1  0  0  0  0  0  0  0  0  0
   27.4598   19.8323   13.5125 F   0  0  0  0  0  0  0  0  0  0  0  0
  1  2  1  6  0  0  0
  1 10  1  0  0  0  0
  1  3  1  0  0  0  0
  3  4  1  6  0  0  0
  3  6  1  0  0  0  0
  5 46  2  0  0  0  0
  6 42  1  1  0  0  0
  6  8  1  0  0  0  0
  7 47  1  0  0  0  0
  8  9  1  0  0  0  0
  8 49  1  1  0  0  0
  9 10  1  0  0  0  0
  9 11  1  1  0  0  0
 11 12  1  0  0  0  0
 13 14  1  1  0  0  0
 13 15  1  0  0  0  0
 13 21  1  0  0  0  0
 14 46  1  0  0  0  0
 15 16  1  0  0  0  0
 16 17  1  1  0  0  0
 16 18  1  0  0  0  0
 18  2  1  6  0  0  0
 18 19  1  0  0  0  0
 19 20  1  1  0  0  0
 19 21  1  0  0  0  0
 21 22  1  6  0  0  0
 23 20  1  1  0  0  0
 23 24  1  0  0  0  0
 23 28  1  0  0  0  0
 24 25  1  6  0  0  0
 24 26  1  0  0  0  0
 26 27  1  0  0  0  0
 26 32  1  6  0  0  0
 27 28  1  0  0  0  0
 27 29  1  1  0  0  0
 29 30  1  0  0  0  0
 31 32  1  6  0  0  0
 31 33  1  0  0  0  0
 31 39  1  0  0  0  0
 33 36  1  0  0  0  0
 33 41  1  1  0  0  0
 34 40  1  0  0  0  0
 35 48  1  0  0  0  0
 36 37  1  0  0  0  0
 36 45  1  1  0  0  0
 37 38  1  0  0  0  0
 37 44  1  6  0  0  0
 38 39  1  0  0  0  0
 38 40  1  1  0  0  0
 43 47  1  0  0  0  0
 46 48  1  0  0  0  0
 48 43  1  1  0  0  0
M  END
>  <CHROM.1>
-149.49449485,-78.32022213,176.30549562,-57.98525353,139.35739335,140.08871870
-91.21923380,71.01308536,-160.60636735,76.17832598,-55.72911799,-145.47425079
24.74840094,26.17404515,14.26355694,10.46872728,-2.40327533,1.26390375,-2.88523635

>  <Name>
ligand

>  <RI>
0

>  <Rbt.Current_Directory>
/home/itssahil/PROJECTS/Mol_Feturizer/New_Systems/rnas/4PDQ

>  <Rbt.Executable>
rbdock ($Id: //depot/dev/client3/rdock/2013.1/src/exe/rbdock.cxx#4 $)

>  <Rbt.Library>
libRbt.so (2013.1, Build901 2013/11/27)

>  <Rbt.Parameter_File>
/export/apps/rDock/src/rDock_2013.1_src/data/scripts/dock_solv.prm

>  <Rbt.Receptor>
prm/blind_docking_80.prm

>  <SCORE>
39.9669

>  <SCORE.INTER>
27.9875

>  <SCORE.INTER.CONST>
1

>  <SCORE.INTER.POLAR>
0

>  <SCORE.INTER.ROT>
13

>  <SCORE.INTER.SOLV>
38.9281

>  <SCORE.INTER.VDW>
-6.58437

>  <SCORE.INTER.norm>
0.571173

>  <SCORE.INTRA>
6.31358

>  <SCORE.INTRA.DIHEDRAL>
-6.85006

>  <SCORE.INTRA.DIHEDRAL.0>
34.5115

>  <SCORE.INTRA.POLAR>
0

>  <SCORE.INTRA.POLAR.0>
0

>  <SCORE.INTRA.REPUL>
0.0517697

>  <SCORE.INTRA.REPUL.0>
0

>  <SCORE.INTRA.SOLV>
7.65239

>  <SCORE.INTRA.SOLV.lig_0>
-122.812

>  <SCORE.INTRA.VDW>
5.65356

>  <SCORE.INTRA.VDW.0>
-7.46208

>  <SCORE.INTRA.norm>
0.128849

>  <SCORE.RESTR>
5.66581

>  <SCORE.RESTR.CAVITY>
5.66581

>  <SCORE.RESTR.norm>
0.115629

>  <SCORE.SYSTEM>
0

>  <SCORE.SYSTEM.CONST>
0

>  <SCORE.SYSTEM.DIHEDRAL>
0

>  <SCORE.SYSTEM.SOLV>
0

>  <SCORE.SYSTEM.norm>
0

>  <SCORE.heavy>
49

>  <SCORE.norm>
0.815651

>  <RMSD>
12.087

$$$$
ligand
 OpenBabel11021811513D
libRbt.so/2013.1/901 2013/11/27
 49 52  0  0  0  0  0  0  0  0999 V2000
   25.9130    7.2767   13.7547 C   0  0  2  0  0  0  0  0  0  0  0  0
   24.7798    6.6118   13.2795 O   0  0  0  0  0  0  0  0  0  0  0  0
   27.0641    6.2377   14.0243 C   0  0  2  0  0  0  0  0  0  0  0  0
   27.3841    5.5020   12.7326 N   0  0  0  0  0  0  0  0  0  0  0  0
   27.3922    2.6918    8.3136 O   0  0  0  0  0  0  0  0  0  0  0  0
   26.6518    5.2558   15.1458 C   0  0  2  0  0  0  0  0  0  0  0  0
   25.4846    3.1902    2.9562 N   0  0  0  0  0  0  0  0  0  0  0  0
   26.3144    6.0234   16.4337 C   0  0  2  0  0  0  0  0  0  0  0  0
   25.1567    7.0838   16.2002 C   0  0  2  0  0  0  0  0  0  0  0  0
   25.5848    7.9972   15.0500 O   0  0  0  0  0  0  0  0  0  0  0  0
   24.8589    7.8955   17.4941 C   0  0  0  0  0  0  0  0  0  0  0  0
   23.8301    8.8610   17.3413 N   0  0  0  0  0  0  0  0  0  0  0  0
   25.5148    4.5510    9.5358 C   0  0  2  0  0  0  0  0  0  0  0  0
   25.2363    3.8265    8.2612 N   0  0  0  0  0  0  0  0  0  0  0  0
   24.5946    3.8809   10.6674 C   0  0  0  0  0  0  0  0  0  0  0  0
   24.8447    4.5731   12.0590 C   0  0  2  0  0  0  0  0  0  0  0  0
   23.9922    3.9812   13.1005 N   0  0  0  0  0  0  0  0  0  0  0  0
   24.5252    6.0788   11.9715 C   0  0  2  0  0  0  0  0  0  0  0  0
   25.4139    6.7701   10.8602 C   0  0  2  0  0  0  0  0  0  0  0  0
   25.0407    8.1984   10.8609 O   0  0  0  0  0  0  0  0  0  0  0  0
   25.0908    6.0874    9.4351 C   0  0  1  0  0  0  0  0  0  0  0  0
   25.8759    6.7141    8.4704 O   0  0  0  0  0  0  0  0  0  0  0  0
   25.7529    9.1871   10.4387 C   0  0  1  0  0  0  0  0  0  0  0  0
   24.9731   10.5007   10.1369 C   0  0  2  0  0  0  0  0  0  0  0  0
   24.5900   10.4788    8.7980 O   0  0  0  0  0  0  0  0  0  0  0  0
   26.0629   11.4619   10.3747 C   0  0  1  0  0  0  0  0  0  0  0  0
   26.8879   10.9673   11.6028 C   0  0  2  0  0  0  0  0  0  0  0  0
   26.8420    9.5877   11.3325 O   0  0  0  0  0  0  0  0  0  0  0  0
   26.4611   11.4334   12.9955 C   0  0  0  0  0  0  0  0  0  0  0  0
   26.5205   12.8471   12.9757 O   0  0  0  0  0  0  0  0  0  0  0  0
   27.8925   12.4096    9.0414 C   0  0  2  0  0  0  0  0  0  0  0  0
   26.8710   11.5069    9.1133 O   0  0  0  0  0  0  0  0  0  0  0  0
   27.4195   13.7630    8.5992 C   0  0  1  0  0  0  0  0  0  0  0  0
   30.8140   12.0183    5.5928 N   0  0  0  0  0  0  0  0  0  0  0  0
   24.6674    1.4249    6.5991 O   0  0  0  0  0  0  0  0  0  0  0  0
   28.6548   14.7387    8.4890 C   0  0  2  0  0  0  0  0  0  0  0  0
   29.7780   14.2256    7.5226 C   0  0  1  0  0  0  0  0  0  0  0  0
   30.2233   12.9281    7.9737 C   0  0  1  0  0  0  0  0  0  0  0  0
   29.0527   11.9700    8.0885 O   0  0  0  0  0  0  0  0  0  0  0  0
   31.3355   12.3478    6.9943 C   0  0  0  0  0  0  0  0  0  0  0  0
   26.8191   13.6727    7.3273 N   0  0  0  0  0  0  0  0  0  0  0  0
   27.5180    4.5389   15.3507 O   0  0  0  0  0  0  0  0  0  0  0  0
   25.6318    3.1651    5.5029 C   0  0  0  0  0  0  0  0  0  0  0  0
   29.3296   14.1199    6.4712 O   0  0  0  0  0  0  0  0  0  0  0  0
   29.1321   14.8314    9.5315 O   0  0  0  0  0  0  0  0  0  0  0  0
   26.3058    2.9045    7.7565 C   0  0  0  0  0  0  0  0  0  0  0  0
   25.5842    2.6063    4.2454 C   0  0  0  0  0  0  0  0  0  0  0  0
   25.8524    2.1875    6.3810 C   0  0  1  0  0  0  0  0  0  0  0  0
   27.4518    6.7107   16.8935 F   0  0  0  0  0  0  0  0  0  0  0  0
  1  2  1  1  0  0  0
  1 10  1  0  0  0  0
  1  3  1  0  0  0  0
  3  4  1  6  0  0  0
  3  6  1  0  0  0  0
  5 46  2  0  0  0  0
  6 42  1  1  0  0  0
  6  8  1  0  0  0  0
  7 47  1  0  0  0  0
  8  9  1  0  0  0  0
  8 49  1  6  0  0  0
  9 10  1  0  0  0  0
  9 11  1  1  0  0  0
 11 12  1  0  0  0  0
 13 14  1  6  0  0  0
 13 15  1  0  0  0  0
 13 21  1  0  0  0  0
 14 46  1  0  0  0  0
 15 16  1  0  0  0  0
 16 17  1  1  0  0  0
 16 18  1  0  0  0  0
 18  2  1  1  0  0  0
 18 19  1  0  0  0  0
 19 20  1  6  0  0  0
 19 21  1  0  0  0  0
 21 22  1  6  0  0  0
 23 20  1  1  0  0  0
 23 24  1  0  0  0  0
 23 28  1  0  0  0  0
 24 25  1  6  0  0  0
 24 26  1  0  0  0  0
 26 27  1  0  0  0  0
 26 32  1  6  0  0  0
 27 28  1  0  0  0  0
 27 29  1  1  0  0  0
 29 30  1  0  0  0  0
 31 32  1  6  0  0  0
 31 33  1  0  0  0  0
 31 39  1  0  0  0  0
 33 36  1  0  0  0  0
 33 41  1  6  0  0  0
 34 40  1  0  0  0  0
 35 48  1  0  0  0  0
 36 37  1  0  0  0  0
 36 45  1  1  0  0  0
 37 38  1  0  0  0  0
 37 44  1  6  0  0  0
 38 39  1  0  0  0  0
 38 40  1  6  0  0  0
 43 47  1  0  0  0  0
 46 48  1  0  0  0  0
 48 43  1  6  0  0  0
M  END
>  <CHROM.1>
-76.38971423,98.04815071,179.96441288,-107.55153872,157.18056410,161.32985057
175.12655824,-58.82799161,-85.05100052,-66.67504161,-174.24454300,-75.91256247
118.99605473,26.52303407,8.13754961,10.52291587,3.02025108,-1.25231482,-2.04264584

>  <Name>
ligand

>  <RI>
0

>  <Rbt.Current_Directory>
/home/itssahil/PROJECTS/Mol_Feturizer/New_Systems/rnas/4PDQ

>  <Rbt.Executable>
rbdock ($Id: //depot/dev/client3/rdock/2013.1/src/exe/rbdock.cxx#4 $)

>  <Rbt.Library>
libRbt.so (2013.1, Build901 2013/11/27)

>  <Rbt.Parameter_File>
/export/apps/rDock/src/rDock_2013.1_src/data/scripts/dock_solv.prm

>  <Rbt.Receptor>
prm/pocket_docking_8.prm

>  <SCORE>
-8.84171

>  <SCORE.INTER>
-2.59644

>  <SCORE.INTER.CONST>
1

>  <SCORE.INTER.POLAR>
0

>  <SCORE.INTER.ROT>
13

>  <SCORE.INTER.SOLV>
10.8526

>  <SCORE.INTER.VDW>
-17.6152

>  <SCORE.INTER.norm>
-0.0529886

>  <SCORE.INTRA>
-6.24527

>  <SCORE.INTRA.DIHEDRAL>
-18.4648

>  <SCORE.INTRA.DIHEDRAL.0>
34.5115

>  <SCORE.INTRA.POLAR>
0

>  <SCORE.INTRA.POLAR.0>
0

>  <SCORE.INTRA.REPUL>
0

>  <SCORE.INTRA.REPUL.0>
0

>  <SCORE.INTRA.SOLV>
1.88203

>  <SCORE.INTRA.SOLV.lig_0>
-122.812

>  <SCORE.INTRA.VDW>
2.04611

>  <SCORE.INTRA.VDW.0>
-7.46208

>  <SCORE.INTRA.norm>
-0.127454

>  <SCORE.RESTR>
0

>  <SCORE.RESTR.CAVITY>
0

>  <SCORE.RESTR.norm>
0

>  <SCORE.SYSTEM>
0

>  <SCORE.SYSTEM.CONST>
0

>  <SCORE.SYSTEM.DIHEDRAL>
0

>  <SCORE.SYSTEM.SOLV>
0

>  <SCORE.SYSTEM.norm>
0

>  <SCORE.heavy>
49

>  <SCORE.norm>
-0.180443

>  <RMSD>
12.095

$$$$
ligand
 OpenBabel11021811513D
libRbt.so/2013.1/901 2013/11/27
 49 52  0  0  0  0  0  0  0  0999 V2000
   27.4475   15.7091   12.3960 C   0  0  2  0  0  0  0  0  0  0  0  0
   26.7580   14.7732   13.1710 O   0  0  0  0  0  0  0  0  0  0  0  0
   27.8977   16.9173   13.2987 C   0  0  2  0  0  0  0  0  0  0  0  0
   28.7863   16.3989   14.4185 N   0  0  0  0  0  0  0  0  0  0  0  0
   28.1737    8.5421   14.0722 O   0  0  0  0  0  0  0  0  0  0  0  0
   26.6626   17.6620   13.8571 C   0  0  2  0  0  0  0  0  0  0  0  0
   25.0668    7.9121   10.9438 N   0  0  0  0  0  0  0  0  0  0  0  0
   25.7708   18.1586   12.7084 C   0  0  2  0  0  0  0  0  0  0  0  0
   25.2976   16.9662   11.7735 C   0  0  2  0  0  0  0  0  0  0  0  0
   26.5471   16.2282   11.2894 O   0  0  0  0  0  0  0  0  0  0  0  0
   24.4413   17.4830   10.5814 C   0  0  0  0  0  0  0  0  0  0  0  0
   23.3397   18.2876   10.9730 N   0  0  0  0  0  0  0  0  0  0  0  0
   27.2722   10.5790   12.1978 C   0  0  2  0  0  0  0  0  0  0  0  0
   26.9506    9.1294   12.0481 N   0  0  0  0  0  0  0  0  0  0  0  0
   26.7764   11.0213   13.6590 C   0  0  0  0  0  0  0  0  0  0  0  0
   27.1010   12.5408   13.9119 C   0  0  2  0  0  0  0  0  0  0  0  0
   26.6332   12.9635   15.2402 N   0  0  0  0  0  0  0  0  0  0  0  0
   26.4050   13.4189   12.8529 C   0  0  2  0  0  0  0  0  0  0  0  0
   26.8693   13.0053   11.3982 C   0  0  2  0  0  0  0  0  0  0  0  0
   26.1581   13.9022   10.4660 O   0  0  0  0  0  0  0  0  0  0  0  0
   26.4668   11.4648   11.1409 C   0  0  1  0  0  0  0  0  0  0  0  0
   26.8762   11.1227    9.8544 O   0  0  0  0  0  0  0  0  0  0  0  0
   26.3646   14.0272    9.1993 C   0  0  1  0  0  0  0  0  0  0  0  0
   26.5097   15.4878    8.6796 C   0  0  2  0  0  0  0  0  0  0  0  0
   25.2473   15.9412    8.3046 O   0  0  0  0  0  0  0  0  0  0  0  0
   27.3610   15.2201    7.5084 C   0  0  1  0  0  0  0  0  0  0  0  0
   28.3932   14.1179    7.8996 C   0  0  2  0  0  0  0  0  0  0  0  0
   27.5474   13.3248    8.6958 O   0  0  0  0  0  0  0  0  0  0  0  0
   29.7284   14.5587    8.5013 C   0  0  0  0  0  0  0  0  0  0  0  0
   29.4184   15.2124    9.7175 O   0  0  0  0  0  0  0  0  0  0  0  0
   25.7554   15.7571    5.7316 C   0  0  2  0  0  0  0  0  0  0  0  0
   26.4418   14.7889    6.4060 O   0  0  0  0  0  0  0  0  0  0  0  0
   26.4855   17.0679    5.7283 C   0  0  1  0  0  0  0  0  0  0  0  0
   21.6731   16.0329    7.1370 N   0  0  0  0  0  0  0  0  0  0  0  0
   27.7594    5.7907   13.6668 O   0  0  0  0  0  0  0  0  0  0  0  0
   25.6148   18.1498    4.9791 C   0  0  2  0  0  0  0  0  0  0  0  0
   24.1835   18.3396    5.5908 C   0  0  1  0  0  0  0  0  0  0  0  0
   23.4979   17.0687    5.5742 C   0  0  1  0  0  0  0  0  0  0  0  0
   24.3156   16.0095    6.2889 O   0  0  0  0  0  0  0  0  0  0  0  0
   22.0532   17.2050    6.2278 C   0  0  0  0  0  0  0  0  0  0  0  0
   26.6893   17.5102    7.0508 N   0  0  0  0  0  0  0  0  0  0  0  0
   27.0146   18.5572   14.4744 O   0  0  0  0  0  0  0  0  0  0  0  0
   25.7387    6.6134   13.0343 C   0  0  0  0  0  0  0  0  0  0  0  0
   24.2986   18.6857    6.6792 O   0  0  0  0  0  0  0  0  0  0  0  0
   25.4670   17.8011    3.8929 O   0  0  0  0  0  0  0  0  0  0  0  0
   27.4917    8.2021   13.0950 C   0  0  0  0  0  0  0  0  0  0  0  0
   25.0844    6.8117   11.8391 C   0  0  0  0  0  0  0  0  0  0  0  0
   27.0493    6.6755   12.8028 C   0  0  1  0  0  0  0  0  0  0  0  0
   26.4781   19.0812   11.9173 F   0  0  0  0  0  0  0  0  0  0  0  0
  1  2  1  1  0  0  0
  1 10  1  0  0  0  0
  1  3  1  0  0  0  0
  3  4  1  1  0  0  0
  3  6  1  0  0  0  0
  5 46  2  0  0  0  0
  6 42  1  6  0  0  0
  6  8  1  0  0  0  0
  7 47  1  0  0  0  0
  8  9  1  0  0  0  0
  8 49  1  6  0  0  0
  9 10  1  0  0  0  0
  9 11  1  6  0  0  0
 11 12  1  0  0  0  0
 13 14  1  6  0  0  0
 13 15  1  0  0  0  0
 13 21  1  0  0  0  0
 14 46  1  0  0  0  0
 15 16  1  0  0  0  0
 16 17  1  1  0  0  0
 16 18  1  0  0  0  0
 18  2  1  1  0  0  0
 18 19  1  0  0  0  0
 19 20  1  6  0  0  0
 19 21  1  0  0  0  0
 21 22  1  6  0  0  0
 23 20  1  1  0  0  0
 23 24  1  0  0  0  0
 23 28  1  0  0  0  0
 24 25  1  6  0  0  0
 24 26  1  0  0  0  0
 26 27  1  0  0  0  0
 26 32  1  6  0  0  0
 27 28  1  0  0  0  0
 27 29  1  1  0  0  0
 29 30  1  0  0  0  0
 31 32  1  1  0  0  0
 31 33  1  0  0  0  0
 31 39  1  0  0  0  0
 33 36  1  0  0  0  0
 33 41  1  1  0  0  0
 34 40  1  0  0  0  0
 35 48  1  0  0  0  0
 36 37  1  0  0  0  0
 36 45  1  6  0  0  0
 37 38  1  0  0  0  0
 37 44  1  1  0  0  0
 38 39  1  0  0  0  0
 38 40  1  1  0  0  0
 43 47  1  0  0  0  0
 46 48  1  0  0  0  0
 48 43  1  1  0  0  0
M  END
>  <CHROM.1>
-166.05628214,119.43981949,-53.63822902,-55.24126461,170.58339401,-131.28534519
79.19228772,62.68590721,27.86240310,-138.63285577,-61.39613503,-146.57795206
-10.95318550,26.27835176,14.28550651,10.25593861,-0.80972050,-1.31035912
0.15070617

>  <Name>
ligand

>  <RI>
0

>  <Rbt.Current_Directory>
/home/itssahil/PROJECTS/Mol_Feturizer/New_Systems/rnas/4PDQ

>  <Rbt.Executable>
rbdock ($Id: //depot/dev/client3/rdock/2013.1/src/exe/rbdock.cxx#4 $)

>  <Rbt.Library>
libRbt.so (2013.1, Build901 2013/11/27)

>  <Rbt.Parameter_File>
/export/apps/rDock/src/rDock_2013.1_src/data/scripts/dock_solv.prm

>  <Rbt.Receptor>
prm/blind_docking_80.prm

>  <SCORE>
21.9763

>  <SCORE.INTER>
-4.20443

>  <SCORE.INTER.CONST>
1

>  <SCORE.INTER.POLAR>
0

>  <SCORE.INTER.ROT>
13

>  <SCORE.INTER.SOLV>
31.5519

>  <SCORE.INTER.VDW>
-25.5869

>  <SCORE.INTER.norm>
-0.0858048

>  <SCORE.INTRA>
16.6096

>  <SCORE.INTRA.DIHEDRAL>
-5.47986

>  <SCORE.INTRA.DIHEDRAL.0>
34.5115

>  <SCORE.INTRA.POLAR>
0

>  <SCORE.INTRA.POLAR.0>
0

>  <SCORE.INTRA.REPUL>
0.260365

>  <SCORE.INTRA.REPUL.0>
0

>  <SCORE.INTRA.SOLV>
7.96765

>  <SCORE.INTRA.SOLV.lig_0>
-122.812

>  <SCORE.INTRA.VDW>
14.0639

>  <SCORE.INTRA.VDW.0>
-7.46208

>  <SCORE.INTRA.norm>
0.338972

>  <SCORE.RESTR>
9.57107

>  <SCORE.RESTR.CAVITY>
9.57107

>  <SCORE.RESTR.norm>
0.195328

>  <SCORE.SYSTEM>
0

>  <SCORE.SYSTEM.CONST>
0

>  <SCORE.SYSTEM.DIHEDRAL>
0

>  <SCORE.SYSTEM.SOLV>
0

>  <SCORE.SYSTEM.norm>
0

>  <SCORE.heavy>
49

>  <SCORE.norm>
0.448496

>  <RMSD>
12.102

$$$$
ligand
 OpenBabel11021811513D
libRbt.so/2013.1/901 2013/11/27
 49 52  0  0  0  0  0  0  0  0999 V2000
   26.3265   12.8550   13.6437 C   0  0  2  0  0  0  0  0  0  0  0  0
   27.0883   13.6854   12.8177 O   0  0  0  0  0  0  0  0  0  0  0  0
   27.2653   12.1285   14.6772 C   0  0  2  0  0  0  0  0  0  0  0  0
   27.9972   13.1728   15.5055 N   0  0  0  0  0  0  0  0  0  0  0  0
   25.7033   17.9695    9.1609 O   0  0  0  0  0  0  0  0  0  0  0  0
   28.2559   11.1957   13.9420 C   0  0  2  0  0  0  0  0  0  0  0  0
   24.3064   23.0654   10.0887 N   0  0  0  0  0  0  0  0  0  0  0  0
   27.4938   10.1630   13.0969 C   0  0  2  0  0  0  0  0  0  0  0  0
   26.5334   10.8595   12.0423 C   0  0  2  0  0  0  0  0  0  0  0  0
   25.6105   11.8097   12.8074 O   0  0  0  0  0  0  0  0  0  0  0  0
   25.7241    9.8085   11.2286 C   0  0  0  0  0  0  0  0  0  0  0  0
   26.5333    8.9274   10.4651 N   0  0  0  0  0  0  0  0  0  0  0  0
   25.2680   17.5365   12.0066 C   0  0  2  0  0  0  0  0  0  0  0  0
   24.9869   18.8334   11.3239 N   0  0  0  0  0  0  0  0  0  0  0  0
   26.8637   17.3945   12.1060 C   0  0  0  0  0  0  0  0  0  0  0  0
   27.2510   16.0567   12.8397 C   0  0  2  0  0  0  0  0  0  0  0  0
   28.7113   15.9052   12.9192 N   0  0  0  0  0  0  0  0  0  0  0  0
   26.6807   14.8447   12.0763 C   0  0  2  0  0  0  0  0  0  0  0  0
   25.1071   14.9557   11.9567 C   0  0  2  0  0  0  0  0  0  0  0  0
   24.6619   13.7545   11.2230 O   0  0  0  0  0  0  0  0  0  0  0  0
   24.7396   16.3001   11.1448 C   0  0  1  0  0  0  0  0  0  0  0  0
   23.3527   16.3754   11.0434 O   0  0  0  0  0  0  0  0  0  0  0  0
   24.4735   13.6467    9.9519 C   0  0  1  0  0  0  0  0  0  0  0  0
   23.5534   12.4735    9.5027 C   0  0  2  0  0  0  0  0  0  0  0  0
   24.3563   11.3605    9.2649 O   0  0  0  0  0  0  0  0  0  0  0  0
   23.0496   13.0580    8.2487 C   0  0  1  0  0  0  0  0  0  0  0  0
   22.8012   14.5795    8.4869 C   0  0  2  0  0  0  0  0  0  0  0  0
   23.9128   14.8376    9.3091 O   0  0  0  0  0  0  0  0  0  0  0  0
   21.4259   15.0169    8.9930 C   0  0  0  0  0  0  0  0  0  0  0  0
   20.6791   15.3800    7.8470 O   0  0  0  0  0  0  0  0  0  0  0  0
   24.9837   13.7970    6.9310 C   0  0  2  0  0  0  0  0  0  0  0  0
   24.0968   12.7972    7.2087 O   0  0  0  0  0  0  0  0  0  0  0  0
   25.4552   13.7537    5.5073 C   0  0  1  0  0  0  0  0  0  0  0  0
   29.2161   13.4350    8.5675 N   0  0  0  0  0  0  0  0  0  0  0  0
   24.9686   20.3328    7.8339 O   0  0  0  0  0  0  0  0  0  0  0  0
   26.5123   14.9012    5.2710 C   0  0  2  0  0  0  0  0  0  0  0  0
   27.7424   14.8334    6.2412 C   0  0  1  0  0  0  0  0  0  0  0  0
   27.2646   14.8865    7.6030 C   0  0  1  0  0  0  0  0  0  0  0  0
   26.2452   13.7921    7.8562 O   0  0  0  0  0  0  0  0  0  0  0  0
   28.4792   14.7761    8.6255 C   0  0  0  0  0  0  0  0  0  0  0  0
   26.0835   12.5198    5.2442 N   0  0  0  0  0  0  0  0  0  0  0  0
   28.8977   10.6502   14.7145 O   0  0  0  0  0  0  0  0  0  0  0  0
   23.6641   20.6323    9.6693 C   0  0  0  0  0  0  0  0  0  0  0  0
   28.2794   13.8327    6.0745 O   0  0  0  0  0  0  0  0  0  0  0  0
   25.9945   15.9102    5.4631 O   0  0  0  0  0  0  0  0  0  0  0  0
   25.2670   18.9009    9.8522 C   0  0  0  0  0  0  0  0  0  0  0  0
   23.4930   21.9980    9.6283 C   0  0  0  0  0  0  0  0  0  0  0  0
   24.9015   20.3586    9.2581 C   0  0  1  0  0  0  0  0  0  0  0  0
   26.7097    9.3464   13.9309 F   0  0  0  0  0  0  0  0  0  0  0  0
  1  2  1  6  0  0  0
  1 10  1  0  0  0  0
  1  3  1  0  0  0  0
  3  4  1  6  0  0  0
  3  6  1  0  0  0  0
  5 46  2  0  0  0  0
  6 42  1  1  0  0  0
  6  8  1  0  0  0  0
  7 47  1  0  0  0  0
  8  9  1  0  0  0  0
  8 49  1  1  0  0  0
  9 10  1  0  0  0  0
  9 11  1  1  0  0  0
 11 12  1  0  0  0  0
 13 14  1  6  0  0  0
 13 15  1  0  0  0  0
 13 21  1  0  0  0  0
 14 46  1  0  0  0  0
 15 16  1  0  0  0  0
 16 17  1  6  0  0  0
 16 18  1  0  0  0  0
 18  2  1  1  0  0  0
 18 19  1  0  0  0  0
 19 20  1  6  0  0  0
 19 21  1  0  0  0  0
 21 22  1  1  0  0  0
 23 20  1  1  0  0  0
 23 24  1  0  0  0  0
 23 28  1  0  0  0  0
 24 25  1  6  0  0  0
 24 26  1  0  0  0  0
 26 27  1  0  0  0  0
 26 32  1  6  0  0  0
 27 28  1  0  0  0  0
 27 29  1  1  0  0  0
 29 30  1  0  0  0  0
 31 32  1  1  0  0  0
 31 33  1  0  0  0  0
 31 39  1  0  0  0  0
 33 36  1  0  0  0  0
 33 41  1  1  0  0  0
 34 40  1  0  0  0  0
 35 48  1  0  0  0  0
 36 37  1  0  0  0  0
 36 45  1  1  0  0  0
 37 38  1  0  0  0  0
 37 44  1  1  0  0  0
 38 39  1  0  0  0  0
 38 40  1  1  0  0  0
 43 47  1  0  0  0  0
 46 48  1  0  0  0  0
 48 43  1  6  0  0  0
M  END
>  <CHROM.1>
-156.25126236,105.80288213,-61.38685346,72.70904829,-93.38458992,-159.40597962
-97.41580473,-95.30726092,-149.70440708,-64.50461350,-47.01431030,-82.49073992
8.45938775,25.68229321,14.63786791,10.10562197,-0.39093535,-1.26107589,0.67232291

>  <Name>
ligand

>  <RI>
0

>  <Rbt.Current_Directory>
/home/itssahil/PROJECTS/Mol_Feturizer/New_Systems/rnas/4PDQ

>  <Rbt.Executable>
rbdock ($Id: //depot/dev/client3/rdock/2013.1/src/exe/rbdock.cxx#4 $)

>  <Rbt.Library>
libRbt.so (2013.1, Build901 2013/11/27)

>  <Rbt.Parameter_File>
/export/apps/rDock/src/rDock_2013.1_src/data/scripts/dock_solv.prm

>  <Rbt.Receptor>
prm/blind_docking_80.prm

>  <SCORE>
10.0784

>  <SCORE.INTER>
-2.04557

>  <SCORE.INTER.CONST>
1

>  <SCORE.INTER.POLAR>
0

>  <SCORE.INTER.ROT>
13

>  <SCORE.INTER.SOLV>
29.172

>  <SCORE.INTER.VDW>
-23.3544

>  <SCORE.INTER.norm>
-0.0417463

>  <SCORE.INTRA>
5.92564

>  <SCORE.INTRA.DIHEDRAL>
-4.37005

>  <SCORE.INTRA.DIHEDRAL.0>
34.5115

>  <SCORE.INTRA.POLAR>
0

>  <SCORE.INTRA.POLAR.0>
0

>  <SCORE.INTRA.REPUL>
0.0434064

>  <SCORE.INTRA.REPUL.0>
0

>  <SCORE.INTRA.SOLV>
2.36835

>  <SCORE.INTRA.SOLV.lig_0>
-122.812

>  <SCORE.INTRA.VDW>
6.70946

>  <SCORE.INTRA.VDW.0>
-7.46208

>  <SCORE.INTRA.norm>
0.120931

>  <SCORE.RESTR>
6.19828

>  <SCORE.RESTR.CAVITY>
6.19828

>  <SCORE.RESTR.norm>
0.126496

>  <SCORE.SYSTEM>
0

>  <SCORE.SYSTEM.CONST>
0

>  <SCORE.SYSTEM.DIHEDRAL>
0

>  <SCORE.SYSTEM.SOLV>
0

>  <SCORE.SYSTEM.norm>
0

>  <SCORE.heavy>
49

>  <SCORE.norm>
0.205681

>  <RMSD>
12.106

$$$$
ligand
 OpenBabel11021811513D
libRbt.so/2013.1/901 2013/11/27
 49 52  0  0  0  0  0  0  0  0999 V2000
   26.9420   15.3892   12.4226 C   0  0  2  0  0  0  0  0  0  0  0  0
   26.1128   14.5534   13.1748 O   0  0  0  0  0  0  0  0  0  0  0  0
   27.5073   16.5387   13.3370 C   0  0  2  0  0  0  0  0  0  0  0  0
   28.2825   15.9221   14.4909 N   0  0  0  0  0  0  0  0  0  0  0  0
   25.3194    8.6318   12.5323 O   0  0  0  0  0  0  0  0  0  0  0  0
   26.3561   17.4370   13.8467 C   0  0  2  0  0  0  0  0  0  0  0  0
   27.6415    7.5501   10.4197 N   0  0  0  0  0  0  0  0  0  0  0  0
   25.5760   18.0320   12.6639 C   0  0  2  0  0  0  0  0  0  0  0  0
   24.9911   16.9007   11.7164 C   0  0  2  0  0  0  0  0  0  0  0  0
   26.1548   16.0080   11.2815 O   0  0  0  0  0  0  0  0  0  0  0  0
   24.2503   17.5111   10.4916 C   0  0  0  0  0  0  0  0  0  0  0  0
   23.0961   18.2619   10.8353 N   0  0  0  0  0  0  0  0  0  0  0  0
   27.5511   10.4773   12.8294 C   0  0  2  0  0  0  0  0  0  0  0  0
   27.6646    9.0098   13.0755 N   0  0  0  0  0  0  0  0  0  0  0  0
   27.4541   11.1879   14.2654 C   0  0  0  0  0  0  0  0  0  0  0  0
   27.3556   12.7502   14.0989 C   0  0  2  0  0  0  0  0  0  0  0  0
   27.2458   13.4117   15.4075 N   0  0  0  0  0  0  0  0  0  0  0  0
   26.1132   13.1210   13.2648 C   0  0  2  0  0  0  0  0  0  0  0  0
   26.1753   12.4320   11.8420 C   0  0  2  0  0  0  0  0  0  0  0  0
   24.9553   12.8524   11.1248 O   0  0  0  0  0  0  0  0  0  0  0  0
   26.2094   10.8316   12.0389 C   0  0  1  0  0  0  0  0  0  0  0  0
   26.2559   10.2442   10.7770 O   0  0  0  0  0  0  0  0  0  0  0  0
   24.8928   13.5506   10.0425 C   0  0  1  0  0  0  0  0  0  0  0  0
   24.9254   12.7401    8.7133 C   0  0  2  0  0  0  0  0  0  0  0  0
   26.2535   12.6227    8.3105 O   0  0  0  0  0  0  0  0  0  0  0  0
   24.1811   13.6840    7.8629 C   0  0  1  0  0  0  0  0  0  0  0  0
   23.0251   14.2962    8.7127 C   0  0  2  0  0  0  0  0  0  0  0  0
   23.7141   14.4134    9.9333 O   0  0  0  0  0  0  0  0  0  0  0  0
   21.6762   13.5755    8.7242 C   0  0  0  0  0  0  0  0  0  0  0  0
   20.7728   14.4361    9.3920 O   0  0  0  0  0  0  0  0  0  0  0  0
   24.6859   15.8860    6.9039 C   0  0  2  0  0  0  0  0  0  0  0  0
   25.1706   14.7118    7.4037 O   0  0  0  0  0  0  0  0  0  0  0  0
   25.2929   16.2266    5.5747 C   0  0  1  0  0  0  0  0  0  0  0  0
   26.0827   20.0705    8.4834 N   0  0  0  0  0  0  0  0  0  0  0  0
   25.7055    5.8272   12.5513 O   0  0  0  0  0  0  0  0  0  0  0  0
   24.7282   17.6154    5.0822 C   0  0  2  0  0  0  0  0  0  0  0  0
   24.9708   18.7882    6.0942 C   0  0  1  0  0  0  0  0  0  0  0  0
   24.3700   18.4418    7.3609 C   0  0  1  0  0  0  0  0  0  0  0  0
   24.8967   17.1085    7.8569 O   0  0  0  0  0  0  0  0  0  0  0  0
   24.6303   19.5877    8.4343 C   0  0  0  0  0  0  0  0  0  0  0  0
   26.6920   16.3429    5.6986 N   0  0  0  0  0  0  0  0  0  0  0  0
   26.7951   18.2860   14.4734 O   0  0  0  0  0  0  0  0  0  0  0  0
   27.9100    6.3635   12.6620 C   0  0  0  0  0  0  0  0  0  0  0  0
   26.1027   18.9108    6.2408 O   0  0  0  0  0  0  0  0  0  0  0  0
   23.5890   17.5152    4.9585 O   0  0  0  0  0  0  0  0  0  0  0  0
   26.4230    8.1910   12.8838 C   0  0  0  0  0  0  0  0  0  0  0  0
   27.8166    6.4439   11.2906 C   0  0  0  0  0  0  0  0  0  0  0  0
   26.7085    6.6271   13.1739 C   0  0  1  0  0  0  0  0  0  0  0  0
   26.4219   18.8522   11.8963 F   0  0  0  0  0  0  0  0  0  0  0  0
  1  2  1  1  0  0  0
  1 10  1  0  0  0  0
  1  3  1  0  0  0  0
  3  4  1  1  0  0  0
  3  6  1  0  0  0  0
  5 46  2  0  0  0  0
  6 42  1  6  0  0  0
  6  8  1  0  0  0  0
  7 47  1  0  0  0  0
  8  9  1  0  0  0  0
  8 49  1  6  0  0  0
  9 10  1  0  0  0  0
  9 11  1  6  0  0  0
 11 12  1  0  0  0  0
 13 14  1  1  0  0  0
 13 15  1  0  0  0  0
 13 21  1  0  0  0  0
 14 46  1  0  0  0  0
 15 16  1  0  0  0  0
 16 17  1  1  0  0  0
 16 18  1  0  0  0  0
 18  2  1  6  0  0  0
 18 19  1  0  0  0  0
 19 20  1  6  0  0  0
 19 21  1  0  0  0  0
 21 22  1  6  0  0  0
 23 20  1  1  0  0  0
 23 24  1  0  0  0  0
 23 28  1  0  0  0  0
 24 25  1  6  0  0  0
 24 26  1  0  0  0  0
 26 27  1  0  0  0  0
 26 32  1  1  0  0  0
 27 28  1  0  0  0  0
 27 29  1  1  0  0  0
 29 30  1  0  0  0  0
 31 32  1  1  0  0  0
 31 33  1  0  0  0  0
 31 39  1  0  0  0  0
 33 36  1  0  0  0  0
 33 41  1  1  0  0  0
 34 40  1  0  0  0  0
 35 48  1  0  0  0  0
 36 37  1  0  0  0  0
 36 45  1  1  0  0  0
 37 38  1  0  0  0  0
 37 44  1  1  0  0  0
 38 39  1  0  0  0  0
 38 40  1  1  0  0  0
 43 47  1  0  0  0  0
 46 48  1  0  0  0  0
 48 43  1  6  0  0  0
M  END
>  <CHROM.1>
-131.03984984,73.17273106,-64.26534220,101.74869782,117.03222041,89.04970801
-162.83743471,-171.40799366,-129.26324035,-47.05043156,70.58246063,50.94337743
19.54541651,25.64901781,14.11845885,10.52991435,-2.16979421,1.22887679,-3.03067823

>  <Name>
ligand

>  <RI>
0

>  <Rbt.Current_Directory>
/home/itssahil/PROJECTS/Mol_Feturizer/New_Systems/rnas/4PDQ

>  <Rbt.Executable>
rbdock ($Id: //depot/dev/client3/rdock/2013.1/src/exe/rbdock.cxx#4 $)

>  <Rbt.Library>
libRbt.so (2013.1, Build901 2013/11/27)

>  <Rbt.Parameter_File>
/export/apps/rDock/src/rDock_2013.1_src/data/scripts/dock_solv.prm

>  <Rbt.Receptor>
prm/blind_docking_60.prm

>  <SCORE>
21.8735

>  <SCORE.INTER>
3.47726

>  <SCORE.INTER.CONST>
1

>  <SCORE.INTER.POLAR>
0

>  <SCORE.INTER.ROT>
13

>  <SCORE.INTER.SOLV>
33.4959

>  <SCORE.INTER.VDW>
-21.1138

>  <SCORE.INTER.norm>
0.0709645

>  <SCORE.INTRA>
16.6099

>  <SCORE.INTRA.DIHEDRAL>
-4.61364

>  <SCORE.INTRA.DIHEDRAL.0>
34.5115

>  <SCORE.INTRA.POLAR>
0

>  <SCORE.INTRA.POLAR.0>
0

>  <SCORE.INTRA.REPUL>
0.405973

>  <SCORE.INTRA.REPUL.0>
0

>  <SCORE.INTRA.SOLV>
11.5151

>  <SCORE.INTRA.SOLV.lig_0>
-122.812

>  <SCORE.INTRA.VDW>
11.1293

>  <SCORE.INTRA.VDW.0>
-7.46208

>  <SCORE.INTRA.norm>
0.338978

>  <SCORE.RESTR>
1.78637

>  <SCORE.RESTR.CAVITY>
1.78637

>  <SCORE.RESTR.norm>
0.0364565

>  <SCORE.SYSTEM>
0

>  <SCORE.SYSTEM.CONST>
0

>  <SCORE.SYSTEM.DIHEDRAL>
0

>  <SCORE.SYSTEM.SOLV>
0

>  <SCORE.SYSTEM.norm>
0

>  <SCORE.heavy>
49

>  <SCORE.norm>
0.446399

>  <RMSD>
12.125

$$$$
ligand
 OpenBabel11021811513D
libRbt.so/2013.1/901 2013/11/27
 49 52  0  0  0  0  0  0  0  0999 V2000
   25.5442   12.3158   13.2854 C   0  0  2  0  0  0  0  0  0  0  0  0
   26.1922   13.5520   13.3472 O   0  0  0  0  0  0  0  0  0  0  0  0
   26.0201   11.4066   14.4788 C   0  0  2  0  0  0  0  0  0  0  0  0
   25.7062   12.1044   15.7929 N   0  0  0  0  0  0  0  0  0  0  0  0
   22.9802   19.0505   10.8980 O   0  0  0  0  0  0  0  0  0  0  0  0
   27.5299   11.0967   14.3510 C   0  0  2  0  0  0  0  0  0  0  0  0
   23.0641   22.3601    7.5259 N   0  0  0  0  0  0  0  0  0  0  0  0
   27.8249   10.4105   13.0080 C   0  0  2  0  0  0  0  0  0  0  0  0
   27.3562   11.2983   11.7785 C   0  0  2  0  0  0  0  0  0  0  0  0
   25.8744   11.6236   11.9752 O   0  0  0  0  0  0  0  0  0  0  0  0
   27.6073   10.5734   10.4245 C   0  0  0  0  0  0  0  0  0  0  0  0
   28.8814    9.9550   10.3328 N   0  0  0  0  0  0  0  0  0  0  0  0
   25.2817   17.4585   11.7002 C   0  0  2  0  0  0  0  0  0  0  0  0
   25.3860   18.6684   10.8328 N   0  0  0  0  0  0  0  0  0  0  0  0
   26.7659   17.1127   12.2040 C   0  0  0  0  0  0  0  0  0  0  0  0
   26.7449   15.8555   13.1512 C   0  0  2  0  0  0  0  0  0  0  0  0
   28.1022   15.5163   13.6035 N   0  0  0  0  0  0  0  0  0  0  0  0
   26.1651   14.6360   12.4071 C   0  0  2  0  0  0  0  0  0  0  0  0
   24.7014   14.9455   11.8925 C   0  0  2  0  0  0  0  0  0  0  0  0
   24.2368   13.7236   11.2066 O   0  0  0  0  0  0  0  0  0  0  0  0
   24.7602   16.1950   10.8743 C   0  0  1  0  0  0  0  0  0  0  0  0
   23.4653   16.4463   10.4271 O   0  0  0  0  0  0  0  0  0  0  0  0
   24.4638   13.3864    9.9829 C   0  0  1  0  0  0  0  0  0  0  0  0
   23.7982   12.0592    9.5136 C   0  0  2  0  0  0  0  0  0  0  0  0
   24.6954   11.0194    9.7453 O   0  0  0  0  0  0  0  0  0  0  0  0
   23.6827   12.3676    8.0785 C   0  0  1  0  0  0  0  0  0  0  0  0
   23.2880   13.8699    7.9344 C   0  0  2  0  0  0  0  0  0  0  0  0
   24.0687   14.3838    8.9856 O   0  0  0  0  0  0  0  0  0  0  0  0
   21.8013   14.2280    7.9122 C   0  0  0  0  0  0  0  0  0  0  0  0
   21.7266   15.5857    7.5203 O   0  0  0  0  0  0  0  0  0  0  0  0
   25.4537   12.8533    6.4503 C   0  0  2  0  0  0  0  0  0  0  0  0
   25.0165   12.0573    7.4696 O   0  0  0  0  0  0  0  0  0  0  0  0
   26.8545   12.5157    6.0319 C   0  0  1  0  0  0  0  0  0  0  0  0
   25.6885   17.8341    4.9858 N   0  0  0  0  0  0  0  0  0  0  0  0
   25.6944   21.1783    9.8234 O   0  0  0  0  0  0  0  0  0  0  0  0
   27.3119   13.5041    4.8899 C   0  0  2  0  0  0  0  0  0  0  0  0
   27.2275   15.0165    5.2953 C   0  0  1  0  0  0  0  0  0  0  0  0
   25.8700   15.3192    5.6841 C   0  0  1  0  0  0  0  0  0  0  0  0
   25.4054   14.3813    6.7821 O   0  0  0  0  0  0  0  0  0  0  0  0
   25.7469   16.8370    6.1466 C   0  0  0  0  0  0  0  0  0  0  0  0
   27.7344   12.6701    7.1219 N   0  0  0  0  0  0  0  0  0  0  0  0
   27.8417   10.4034   15.2045 O   0  0  0  0  0  0  0  0  0  0  0  0
   24.2730   20.2552    8.3109 C   0  0  0  0  0  0  0  0  0  0  0  0
   27.9190   15.1886    6.1952 O   0  0  0  0  0  0  0  0  0  0  0  0
   26.6084   13.3626    3.9908 O   0  0  0  0  0  0  0  0  0  0  0  0
   24.1078   19.3802   10.5036 C   0  0  0  0  0  0  0  0  0  0  0  0
   24.0699   21.3595    7.5140 C   0  0  0  0  0  0  0  0  0  0  0  0
   24.3857   20.6709    9.5718 C   0  0  1  0  0  0  0  0  0  0  0  0
   27.1502    9.1786   12.9411 F   0  0  0  0  0  0  0  0  0  0  0  0
  1  2  1  6  0  0  0
  1 10  1  0  0  0  0
  1  3  1  0  0  0  0
  3  4  1  1  0  0  0
  3  6  1  0  0  0  0
  5 46  2  0  0  0  0
  6 42  1  1  0  0  0
  6  8  1  0  0  0  0
  7 47  1  0  0  0  0
  8  9  1  0  0  0  0
  8 49  1  1  0  0  0
  9 10  1  0  0  0  0
  9 11  1  6  0  0  0
 11 12  1  0  0  0  0
 13 14  1  6  0  0  0
 13 15  1  0  0  0  0
 13 21  1  0  0  0  0
 14 46  1  0  0  0  0
 15 16  1  0  0  0  0
 16 17  1  6  0  0  0
 16 18  1  0  0  0  0
 18  2  1  1  0  0  0
 18 19  1  0  0  0  0
 19 20  1  6  0  0  0
 19 21  1  0  0  0  0
 21 22  1  1  0  0  0
 23 20  1  1  0  0  0
 23 24  1  0  0  0  0
 23 28  1  0  0  0  0
 24 25  1  6  0  0  0
 24 26  1  0  0  0  0
 26 27  1  0  0  0  0
 26 32  1  6  0  0  0
 27 28  1  0  0  0  0
 27 29  1  1  0  0  0
 29 30  1  0  0  0  0
 31 32  1  1  0  0  0
 31 33  1  0  0  0  0
 31 39  1  0  0  0  0
 33 36  1  0  0  0  0
 33 41  1  1  0  0  0
 34 40  1  0  0  0  0
 35 48  1  0  0  0  0
 36 37  1  0  0  0  0
 36 45  1  6  0  0  0
 37 38  1  0  0  0  0
 37 44  1  1  0  0  0
 38 39  1  0  0  0  0
 38 40  1  1  0  0  0
 43 47  1  0  0  0  0
 46 48  1  0  0  0  0
 48 43  1  6  0  0  0
M  END
>  <CHROM.1>
173.54956799,165.54672080,-44.57139673,-165.89183454,-84.44266211,-177.75083533
-144.76151074,-169.05409399,174.25227937,78.32810743,-58.17963109,-79.75437073
151.01192287,25.54630134,14.59745455,9.80138967,0.42788323,-1.29924140,1.42491134

>  <Name>
ligand

>  <RI>
0

>  <Rbt.Current_Directory>
/home/itssahil/PROJECTS/Mol_Feturizer/New_Systems/rnas/4PDQ

>  <Rbt.Executable>
rbdock ($Id: //depot/dev/client3/rdock/2013.1/src/exe/rbdock.cxx#4 $)

>  <Rbt.Library>
libRbt.so (2013.1, Build901 2013/11/27)

>  <Rbt.Parameter_File>
/export/apps/rDock/src/rDock_2013.1_src/data/scripts/dock_solv.prm

>  <Rbt.Receptor>
prm/blind_docking_80.prm

>  <SCORE>
1.87058

>  <SCORE.INTER>
1.41307

>  <SCORE.INTER.CONST>
1

>  <SCORE.INTER.POLAR>
0

>  <SCORE.INTER.ROT>
13

>  <SCORE.INTER.SOLV>
31.9581

>  <SCORE.INTER.VDW>
-21.9773

>  <SCORE.INTER.norm>
0.0288382

>  <SCORE.INTRA>
-5.36513

>  <SCORE.INTRA.DIHEDRAL>
-20.475

>  <SCORE.INTRA.DIHEDRAL.0>
34.5115

>  <SCORE.INTRA.POLAR>
0

>  <SCORE.INTRA.POLAR.0>
0

>  <SCORE.INTRA.REPUL>
0

>  <SCORE.INTRA.REPUL.0>
0

>  <SCORE.INTRA.SOLV>
-0.470175

>  <SCORE.INTRA.SOLV.lig_0>
-122.812

>  <SCORE.INTRA.VDW>
5.10746

>  <SCORE.INTRA.VDW.0>
-7.46208

>  <SCORE.INTRA.norm>
-0.109492

>  <SCORE.RESTR>
5.82263

>  <SCORE.RESTR.CAVITY>
5.82263

>  <SCORE.RESTR.norm>
0.118829

>  <SCORE.SYSTEM>
0

>  <SCORE.SYSTEM.CONST>
0

>  <SCORE.SYSTEM.DIHEDRAL>
0

>  <SCORE.SYSTEM.SOLV>
0

>  <SCORE.SYSTEM.norm>
0

>  <SCORE.heavy>
49

>  <SCORE.norm>
0.038175

>  <RMSD>
12.138

$$$$
ligand
 OpenBabel11021811513D
libRbt.so/2013.1/901 2013/11/27
 49 52  0  0  0  0  0  0  0  0999 V2000
   26.4001   16.8540   13.8578 C   0  0  2  0  0  0  0  0  0  0  0  0
   26.4461   15.9634   12.7823 O   0  0  0  0  0  0  0  0  0  0  0  0
   26.0526   18.2980   13.3368 C   0  0  2  0  0  0  0  0  0  0  0  0
   24.7110   18.2606   12.6219 N   0  0  0  0  0  0  0  0  0  0  0  0
   28.6475    9.6779   11.0075 O   0  0  0  0  0  0  0  0  0  0  0  0
   27.1732   18.8193   12.4070 C   0  0  2  0  0  0  0  0  0  0  0  0
   25.8833    7.9629   14.5503 N   0  0  0  0  0  0  0  0  0  0  0  0
   28.5212   18.8291   13.1448 C   0  0  2  0  0  0  0  0  0  0  0  0
   28.9052   17.3877   13.6875 C   0  0  2  0  0  0  0  0  0  0  0  0
   27.7476   16.8920   14.5560 O   0  0  0  0  0  0  0  0  0  0  0  0
   30.2435   17.4162   14.4810 C   0  0  0  0  0  0  0  0  0  0  0  0
   30.4547   16.2700   15.2906 N   0  0  0  0  0  0  0  0  0  0  0  0
   26.8612   11.7018   12.0973 C   0  0  2  0  0  0  0  0  0  0  0  0
   26.6045   10.2362   12.2125 N   0  0  0  0  0  0  0  0  0  0  0  0
   26.8846   12.2930   13.5894 C   0  0  0  0  0  0  0  0  0  0  0  0
   27.1759   13.8399   13.5622 C   0  0  2  0  0  0  0  0  0  0  0  0
   27.1798   14.3973   14.9227 N   0  0  0  0  0  0  0  0  0  0  0  0
   26.0944   14.5725   12.7433 C   0  0  2  0  0  0  0  0  0  0  0  0
   26.0421   14.0096   11.2657 C   0  0  2  0  0  0  0  0  0  0  0  0
   24.9898   14.7750   10.5682 O   0  0  0  0  0  0  0  0  0  0  0  0
   25.6778   12.4393   11.3187 C   0  0  1  0  0  0  0  0  0  0  0  0
   25.6289   11.9651   10.0101 O   0  0  0  0  0  0  0  0  0  0  0  0
   24.6778   14.7048    9.3190 C   0  0  1  0  0  0  0  0  0  0  0  0
   23.3755   13.9165    8.9915 C   0  0  2  0  0  0  0  0  0  0  0  0
   23.7205   12.5866    8.7631 O   0  0  0  0  0  0  0  0  0  0  0  0
   23.0107   14.6054    7.7424 C   0  0  1  0  0  0  0  0  0  0  0  0
   23.3258   16.1235    7.9147 C   0  0  2  0  0  0  0  0  0  0  0  0
   24.5180   15.9984    8.6504 O   0  0  0  0  0  0  0  0  0  0  0  0
   22.2318   17.0291    8.4823 C   0  0  0  0  0  0  0  0  0  0  0  0
   21.0974   16.8455    7.6564 O   0  0  0  0  0  0  0  0  0  0  0  0
   25.0416   14.4991    6.3686 C   0  0  2  0  0  0  0  0  0  0  0  0
   23.8180   13.9654    6.6539 O   0  0  0  0  0  0  0  0  0  0  0  0
   25.4772   14.1936    4.9657 C   0  0  1  0  0  0  0  0  0  0  0  0
   28.6524   12.5202    8.2402 N   0  0  0  0  0  0  0  0  0  0  0  0
   27.6734    6.9864   10.7175 O   0  0  0  0  0  0  0  0  0  0  0  0
   26.9159   14.7943    4.7220 C   0  0  2  0  0  0  0  0  0  0  0  0
   27.9935   14.2791    5.7379 C   0  0  1  0  0  0  0  0  0  0  0  0
   27.5572   14.5929    7.0783 C   0  0  1  0  0  0  0  0  0  0  0  0
   26.1744   14.0260    7.3382 O   0  0  0  0  0  0  0  0  0  0  0  0
   28.6024   14.0479    8.1477 C   0  0  0  0  0  0  0  0  0  0  0  0
   25.5479   12.7989    4.7752 N   0  0  0  0  0  0  0  0  0  0  0  0
   26.9178   19.8828   12.0753 O   0  0  0  0  0  0  0  0  0  0  0  0
   27.7853    7.3862   12.9508 C   0  0  0  0  0  0  0  0  0  0  0  0
   28.0752   13.1391    5.6310 O   0  0  0  0  0  0  0  0  0  0  0  0
   26.8547   15.9353    4.8547 O   0  0  0  0  0  0  0  0  0  0  0  0
   27.6173    9.3187   11.5952 C   0  0  0  0  0  0  0  0  0  0  0  0
   27.1813    8.0634   13.9865 C   0  0  0  0  0  0  0  0  0  0  0  0
   27.2075    7.7709   11.8134 C   0  0  1  0  0  0  0  0  0  0  0  0
   28.4611   19.7080   14.2407 F   0  0  0  0  0  0  0  0  0  0  0  0
  1  2  1  6  0  0  0
  1 10  1  0  0  0  0
  1  3  1  0  0  0  0
  3  4  1  6  0  0  0
  3  6  1  0  0  0  0
  5 46  2  0  0  0  0
  6 42  1  1  0  0  0
  6  8  1  0  0  0  0
  7 47  1  0  0  0  0
  8  9  1  0  0  0  0
  8 49  1  1  0  0  0
  9 10  1  0  0  0  0
  9 11  1  1  0  0  0
 11 12  1  0  0  0  0
 13 14  1  1  0  0  0
 13 15  1  0  0  0  0
 13 21  1  0  0  0  0
 14 46  1  0  0  0  0
 15 16  1  0  0  0  0
 16 17  1  1  0  0  0
 16 18  1  0  0  0  0
 18  2  1  6  0  0  0
 18 19  1  0  0  0  0
 19 20  1  6  0  0  0
 19 21  1  0  0  0  0
 21 22  1  6  0  0  0
 23 20  1  1  0  0  0
 23 24  1  0  0  0  0
 23 28  1  0  0  0  0
 24 25  1  6  0  0  0
 24 26  1  0  0  0  0
 26 27  1  0  0  0  0
 26 32  1  6  0  0  0
 27 28  1  0  0  0  0
 27 29  1  1  0  0  0
 29 30  1  0  0  0  0
 31 32  1  1  0  0  0
 31 33  1  0  0  0  0
 31 39  1  0  0  0  0
 33 36  1  0  0  0  0
 33 41  1  1  0  0  0
 34 40  1  0  0  0  0
 35 48  1  0  0  0  0
 36 37  1  0  0  0  0
 36 45  1  1  0  0  0
 37 38  1  0  0  0  0
 37 44  1  1  0  0  0
 38 39  1  0  0  0  0
 38 40  1  1  0  0  0
 43 47  1  0  0  0  0
 46 48  1  0  0  0  0
 48 43  1  1  0  0  0
M  END
>  <CHROM.1>
-147.08093114,-69.96723156,163.59730815,-123.11581532,174.83039333,103.82477031
-90.39842074,-55.02255580,-155.71478917,-68.62946742,69.96567352,-172.84386424
-32.01545715,26.40170768,14.17065643,10.46858498,0.81759703,-1.21518259,0.22675629

>  <Name>
ligand

>  <RI>
0

>  <Rbt.Current_Directory>
/home/itssahil/PROJECTS/Mol_Feturizer/New_Systems/rnas/4PDQ

>  <Rbt.Executable>
rbdock ($Id: //depot/dev/client3/rdock/2013.1/src/exe/rbdock.cxx#4 $)

>  <Rbt.Library>
libRbt.so (2013.1, Build901 2013/11/27)

>  <Rbt.Parameter_File>
/export/apps/rDock/src/rDock_2013.1_src/data/scripts/dock_solv.prm

>  <Rbt.Receptor>
prm/blind_docking_60.prm

>  <SCORE>
16.3408

>  <SCORE.INTER>
9.82177

>  <SCORE.INTER.CONST>
1

>  <SCORE.INTER.POLAR>
0

>  <SCORE.INTER.ROT>
13

>  <SCORE.INTER.SOLV>
36.8245

>  <SCORE.INTER.VDW>
-17.9936

>  <SCORE.INTER.norm>
0.200444

>  <SCORE.INTRA>
2.84923

>  <SCORE.INTRA.DIHEDRAL>
-12.8307

>  <SCORE.INTRA.DIHEDRAL.0>
34.5115

>  <SCORE.INTRA.POLAR>
0

>  <SCORE.INTRA.POLAR.0>
0

>  <SCORE.INTRA.REPUL>
0.0843831

>  <SCORE.INTRA.REPUL.0>
0

>  <SCORE.INTRA.SOLV>
4.83682

>  <SCORE.INTRA.SOLV.lig_0>
-122.812

>  <SCORE.INTRA.VDW>
6.42427

>  <SCORE.INTRA.VDW.0>
-7.46208

>  <SCORE.INTRA.norm>
0.0581475

>  <SCORE.RESTR>
3.66983

>  <SCORE.RESTR.CAVITY>
3.66983

>  <SCORE.RESTR.norm>
0.0748944

>  <SCORE.SYSTEM>
0

>  <SCORE.SYSTEM.CONST>
0

>  <SCORE.SYSTEM.DIHEDRAL>
0

>  <SCORE.SYSTEM.SOLV>
0

>  <SCORE.SYSTEM.norm>
0

>  <SCORE.heavy>
49

>  <SCORE.norm>
0.333486

>  <RMSD>
12.140

$$$$
ligand
 OpenBabel11021811513D
libRbt.so/2013.1/901 2013/11/27
 49 52  0  0  0  0  0  0  0  0999 V2000
   28.9760    4.3379   10.5314 C   0  0  2  0  0  0  0  0  0  0  0  0
   27.9578    5.0163   11.2059 O   0  0  0  0  0  0  0  0  0  0  0  0
   28.6963    2.7894   10.5671 C   0  0  2  0  0  0  0  0  0  0  0  0
   27.3513    2.5106    9.9147 N   0  0  0  0  0  0  0  0  0  0  0  0
   27.9901   10.6510   12.4591 O   0  0  0  0  0  0  0  0  0  0  0  0
   28.7364    2.2682   12.0226 C   0  0  2  0  0  0  0  0  0  0  0  0
   26.5547   11.0893   15.0905 N   0  0  0  0  0  0  0  0  0  0  0  0
   30.0968    2.5789   12.6665 C   0  0  2  0  0  0  0  0  0  0  0  0
   30.4151    4.1338   12.6472 C   0  0  2  0  0  0  0  0  0  0  0  0
   30.3115    4.6139   11.1984 O   0  0  0  0  0  0  0  0  0  0  0  0
   31.8178    4.4351   13.2501 C   0  0  0  0  0  0  0  0  0  0  0  0
   31.9343    4.1032   14.6250 N   0  0  0  0  0  0  0  0  0  0  0  0
   26.0541    8.9120   11.1545 C   0  0  2  0  0  0  0  0  0  0  0  0
   25.7678   10.3324   11.5116 N   0  0  0  0  0  0  0  0  0  0  0  0
   26.2243    8.1067   12.5325 C   0  0  0  0  0  0  0  0  0  0  0  0
   26.5063    6.5844   12.2472 C   0  0  2  0  0  0  0  0  0  0  0  0
   26.6843    5.8393   13.5022 N   0  0  0  0  0  0  0  0  0  0  0  0
   27.7890    6.4274   11.4064 C   0  0  2  0  0  0  0  0  0  0  0  0
   27.6557    7.2143   10.0404 C   0  0  2  0  0  0  0  0  0  0  0  0
   28.9212    6.9963    9.3120 O   0  0  0  0  0  0  0  0  0  0  0  0
   27.4331    8.7794   10.3600 C   0  0  1  0  0  0  0  0  0  0  0  0
   27.3263    9.4549    9.1467 O   0  0  0  0  0  0  0  0  0  0  0  0
   29.0728    6.8803    8.0367 C   0  0  1  0  0  0  0  0  0  0  0  0
   28.6631    8.1227    7.1922 C   0  0  2  0  0  0  0  0  0  0  0  0
   27.3248    7.9802    6.8336 O   0  0  0  0  0  0  0  0  0  0  0  0
   29.5590    7.9115    6.0430 C   0  0  1  0  0  0  0  0  0  0  0  0
   30.9268    7.3902    6.5823 C   0  0  2  0  0  0  0  0  0  0  0  0
   30.4352    6.5591    7.6051 O   0  0  0  0  0  0  0  0  0  0  0  0
   31.9965    8.4180    6.9541 C   0  0  0  0  0  0  0  0  0  0  0  0
   31.4427    9.2100    7.9879 O   0  0  0  0  0  0  0  0  0  0  0  0
   29.4913    6.5883    3.9771 C   0  0  2  0  0  0  0  0  0  0  0  0
   28.8742    6.9238    5.1476 O   0  0  0  0  0  0  0  0  0  0  0  0
   28.7546    5.5088    3.2401 C   0  0  1  0  0  0  0  0  0  0  0  0
   34.1269    6.4825    3.5930 N   0  0  0  0  0  0  0  0  0  0  0  0
   26.0172   13.2618   11.2849 O   0  0  0  0  0  0  0  0  0  0  0  0
   29.5478    5.1362    1.9278 C   0  0  2  0  0  0  0  0  0  0  0  0
   31.0263    4.6859    2.1925 C   0  0  1  0  0  0  0  0  0  0  0  0
   31.7166    5.7434    2.8930 C   0  0  1  0  0  0  0  0  0  0  0  0
   30.9730    6.1211    4.1601 O   0  0  0  0  0  0  0  0  0  0  0  0
   33.2126    5.3113    3.2222 C   0  0  0  0  0  0  0  0  0  0  0  0
   28.6657    4.3521    4.0404 N   0  0  0  0  0  0  0  0  0  0  0  0
   28.5715    1.1372   12.0183 O   0  0  0  0  0  0  0  0  0  0  0  0
   25.3877   12.5364   13.3434 C   0  0  0  0  0  0  0  0  0  0  0  0
   31.0057    3.7509    2.8580 O   0  0  0  0  0  0  0  0  0  0  0  0
   29.6012    6.0736    1.2632 O   0  0  0  0  0  0  0  0  0  0  0  0
   26.8675   11.0983   12.1845 C   0  0  0  0  0  0  0  0  0  0  0  0
   25.8902   12.2387   14.5903 C   0  0  0  0  0  0  0  0  0  0  0  0
   26.4114   12.6173   12.4943 C   0  0  1  0  0  0  0  0  0  0  0  0
   31.1202    1.9136   11.9684 F   0  0  0  0  0  0  0  0  0  0  0  0
  1  2  1  1  0  0  0
  1 10  1  0  0  0  0
  1  3  1  0  0  0  0
  3  4  1  1  0  0  0
  3  6  1  0  0  0  0
  5 46  2  0  0  0  0
  6 42  1  6  0  0  0
  6  8  1  0  0  0  0
  7 47  1  0  0  0  0
  8  9  1  0  0  0  0
  8 49  1  6  0  0  0
  9 10  1  0  0  0  0
  9 11  1  6  0  0  0
 11 12  1  0  0  0  0
 13 14  1  1  0  0  0
 13 15  1  0  0  0  0
 13 21  1  0  0  0  0
 14 46  1  0  0  0  0
 15 16  1  0  0  0  0
 16 17  1  1  0  0  0
 16 18  1  0  0  0  0
 18  2  1  6  0  0  0
 18 19  1  0  0  0  0
 19 20  1  6  0  0  0
 19 21  1  0  0  0  0
 21 22  1  6  0  0  0
 23 20  1  1  0  0  0
 23 24  1  0  0  0  0
 23 28  1  0  0  0  0
 24 25  1  6  0  0  0
 24 26  1  0  0  0  0
 26 27  1  0  0  0  0
 26 32  1  6  0  0  0
 27 28  1  0  0  0  0
 27 29  1  1  0  0  0
 29 30  1  0  0  0  0
 31 32  1  1  0  0  0
 31 33  1  0  0  0  0
 31 39  1  0  0  0  0
 33 36  1  0  0  0  0
 33 41  1  1  0  0  0
 34 40  1  0  0  0  0
 35 48  1  0  0  0  0
 36 37  1  0  0  0  0
 36 45  1  6  0  0  0
 37 38  1  0  0  0  0
 37 44  1  1  0  0  0
 38 39  1  0  0  0  0
 38 40  1  1  0  0  0
 43 47  1  0  0  0  0
 46 48  1  0  0  0  0
 48 43  1  1  0  0  0
M  END
>  <CHROM.1>
-178.98024534,-178.72767438,-64.07905945,66.55240158,145.34203573,62.09188543
178.02402067,61.01583338,175.14483541,163.44974504,-65.69740240,-164.53425421
121.83487508,28.96433776,6.73484076,8.99098470,-2.54310686,1.13328392,-1.02101505

>  <Name>
ligand

>  <RI>
0

>  <Rbt.Current_Directory>
/home/itssahil/PROJECTS/Mol_Feturizer/New_Systems/rnas/4PDQ

>  <Rbt.Executable>
rbdock ($Id: //depot/dev/client3/rdock/2013.1/src/exe/rbdock.cxx#4 $)

>  <Rbt.Library>
libRbt.so (2013.1, Build901 2013/11/27)

>  <Rbt.Parameter_File>
/export/apps/rDock/src/rDock_2013.1_src/data/scripts/dock_solv.prm

>  <Rbt.Receptor>
prm/pocket_docking_8.prm

>  <SCORE>
-16.9288

>  <SCORE.INTER>
-6.81838

>  <SCORE.INTER.CONST>
1

>  <SCORE.INTER.POLAR>
0

>  <SCORE.INTER.ROT>
13

>  <SCORE.INTER.SOLV>
18.4914

>  <SCORE.INTER.VDW>
-22.9761

>  <SCORE.INTER.norm>
-0.139151

>  <SCORE.INTRA>
-10.1104

>  <SCORE.INTRA.DIHEDRAL>
-27.0316

>  <SCORE.INTRA.DIHEDRAL.0>
34.5115

>  <SCORE.INTRA.POLAR>
0

>  <SCORE.INTRA.POLAR.0>
0

>  <SCORE.INTRA.REPUL>
0.0546434

>  <SCORE.INTRA.REPUL.0>
0

>  <SCORE.INTRA.SOLV>
0.407953

>  <SCORE.INTRA.SOLV.lig_0>
-122.812

>  <SCORE.INTRA.VDW>
2.92822

>  <SCORE.INTRA.VDW.0>
-7.46208

>  <SCORE.INTRA.norm>
-0.206335

>  <SCORE.RESTR>
0

>  <SCORE.RESTR.CAVITY>
0

>  <SCORE.RESTR.norm>
0

>  <SCORE.SYSTEM>
0

>  <SCORE.SYSTEM.CONST>
0

>  <SCORE.SYSTEM.DIHEDRAL>
0

>  <SCORE.SYSTEM.SOLV>
0

>  <SCORE.SYSTEM.norm>
0

>  <SCORE.heavy>
49

>  <SCORE.norm>
-0.345485

>  <RMSD>
12.169

$$$$
ligand
 OpenBabel11021811513D
libRbt.so/2013.1/901 2013/11/27
 49 52  0  0  0  0  0  0  0  0999 V2000
   25.8683   13.0289   13.7353 C   0  0  2  0  0  0  0  0  0  0  0  0
   26.9557   13.7690   13.2641 O   0  0  0  0  0  0  0  0  0  0  0  0
   26.3405   12.0664   14.8875 C   0  0  2  0  0  0  0  0  0  0  0  0
   26.9456   12.8932   16.0112 N   0  0  0  0  0  0  0  0  0  0  0  0
   23.2546   18.6408   10.1037 O   0  0  0  0  0  0  0  0  0  0  0  0
   27.3505   11.0294   14.3431 C   0  0  2  0  0  0  0  0  0  0  0  0
   24.0281   23.8373   10.3348 N   0  0  0  0  0  0  0  0  0  0  0  0
   26.7237   10.2205   13.1966 C   0  0  2  0  0  0  0  0  0  0  0  0
   26.2327   11.1593   12.0145 C   0  0  2  0  0  0  0  0  0  0  0  0
   25.2804   12.1988   12.6083 O   0  0  0  0  0  0  0  0  0  0  0  0
   25.5492   10.3387   10.8826 C   0  0  0  0  0  0  0  0  0  0  0  0
   25.9570    8.9803   10.8327 N   0  0  0  0  0  0  0  0  0  0  0  0
   25.6092   17.3580   11.2371 C   0  0  2  0  0  0  0  0  0  0  0  0
   25.6679   18.6187   10.4407 N   0  0  0  0  0  0  0  0  0  0  0  0
   26.7965   17.4281   12.3151 C   0  0  0  0  0  0  0  0  0  0  0  0
   26.7927   16.1400   13.2201 C   0  0  2  0  0  0  0  0  0  0  0  0
   27.8889   16.1830   14.1990 N   0  0  0  0  0  0  0  0  0  0  0  0
   26.9692   14.8776   12.3528 C   0  0  2  0  0  0  0  0  0  0  0  0
   25.8152   14.7802   11.2748 C   0  0  2  0  0  0  0  0  0  0  0  0
   26.0686   13.5447   10.5077 O   0  0  0  0  0  0  0  0  0  0  0  0
   25.8823   16.0789   10.3207 C   0  0  1  0  0  0  0  0  0  0  0  0
   24.8653   15.9707    9.3753 O   0  0  0  0  0  0  0  0  0  0  0  0
   26.8261   13.4155    9.4721 C   0  0  1  0  0  0  0  0  0  0  0  0
   28.3285   13.7636    9.6868 C   0  0  2  0  0  0  0  0  0  0  0  0
   28.5074   15.1121    9.3878 O   0  0  0  0  0  0  0  0  0  0  0  0
   28.9053   12.8953    8.6469 C   0  0  1  0  0  0  0  0  0  0  0  0
   28.1103   11.5531    8.6384 C   0  0  2  0  0  0  0  0  0  0  0  0
   26.8269   12.0790    8.8724 O   0  0  0  0  0  0  0  0  0  0  0  0
   28.5917   10.4219    9.5481 C   0  0  0  0  0  0  0  0  0  0  0  0
   27.9051    9.2574    9.1295 O   0  0  0  0  0  0  0  0  0  0  0  0
   27.5832   14.2083    7.0496 C   0  0  2  0  0  0  0  0  0  0  0  0
   28.7892   13.6463    7.3552 O   0  0  0  0  0  0  0  0  0  0  0  0
   26.9856   13.6199    5.8055 C   0  0  1  0  0  0  0  0  0  0  0  0
   27.5823   18.4213    5.3633 N   0  0  0  0  0  0  0  0  0  0  0  0
   24.3366   20.3020    7.7078 O   0  0  0  0  0  0  0  0  0  0  0  0
   25.6232   14.3485    5.4844 C   0  0  2  0  0  0  0  0  0  0  0  0
   25.7628   15.9021    5.3243 C   0  0  1  0  0  0  0  0  0  0  0  0
   26.3301   16.4458    6.5359 C   0  0  1  0  0  0  0  0  0  0  0  0
   27.6423   15.7609    6.8674 O   0  0  0  0  0  0  0  0  0  0  0  0
   26.5309   18.0189    6.4014 C   0  0  0  0  0  0  0  0  0  0  0  0
   27.8543   13.8162    4.7132 N   0  0  0  0  0  0  0  0  0  0  0  0
   27.6465   10.3183   15.1875 O   0  0  0  0  0  0  0  0  0  0  0  0
   23.7381   21.4125    9.5968 C   0  0  0  0  0  0  0  0  0  0  0  0
   26.4783   16.1126    4.4517 O   0  0  0  0  0  0  0  0  0  0  0  0
   24.9052   14.1697    6.3652 O   0  0  0  0  0  0  0  0  0  0  0  0
   24.3675   19.1542    9.9201 C   0  0  0  0  0  0  0  0  0  0  0  0
   24.3900   22.6209    9.7006 C   0  0  0  0  0  0  0  0  0  0  0  0
   24.5934   20.5238    9.0928 C   0  0  1  0  0  0  0  0  0  0  0  0
   25.6149    9.4974   13.6710 F   0  0  0  0  0  0  0  0  0  0  0  0
  1  2  1  6  0  0  0
  1 10  1  0  0  0  0
  1  3  1  0  0  0  0
  3  4  1  1  0  0  0
  3  6  1  0  0  0  0
  5 46  2  0  0  0  0
  6 42  1  1  0  0  0
  6  8  1  0  0  0  0
  7 47  1  0  0  0  0
  8  9  1  0  0  0  0
  8 49  1  1  0  0  0
  9 10  1  0  0  0  0
  9 11  1  6  0  0  0
 11 12  1  0  0  0  0
 13 14  1  6  0  0  0
 13 15  1  0  0  0  0
 13 21  1  0  0  0  0
 14 46  1  0  0  0  0
 15 16  1  0  0  0  0
 16 17  1  1  0  0  0
 16 18  1  0  0  0  0
 18  2  1  1  0  0  0
 18 19  1  0  0  0  0
 19 20  1  6  0  0  0
 19 21  1  0  0  0  0
 21 22  1  6  0  0  0
 23 20  1  1  0  0  0
 23 24  1  0  0  0  0
 23 28  1  0  0  0  0
 24 25  1  6  0  0  0
 24 26  1  0  0  0  0
 26 27  1  0  0  0  0
 26 32  1  6  0  0  0
 27 28  1  0  0  0  0
 27 29  1  1  0  0  0
 29 30  1  0  0  0  0
 31 32  1  6  0  0  0
 31 33  1  0  0  0  0
 31 39  1  0  0  0  0
 33 36  1  0  0  0  0
 33 41  1  6  0  0  0
 34 40  1  0  0  0  0
 35 48  1  0  0  0  0
 36 37  1  0  0  0  0
 36 45  1  1  0  0  0
 37 38  1  0  0  0  0
 37 44  1  6  0  0  0
 38 39  1  0  0  0  0
 38 40  1  6  0  0  0
 43 47  1  0  0  0  0
 46 48  1  0  0  0  0
 48 43  1  1  0  0  0
M  END
>  <CHROM.1>
-171.07306991,88.62014132,-24.20168869,-148.44366704,-86.71472362,60.50618738
-48.38855645,-167.06080769,-117.10081827,-66.49177806,-169.76749217,-101.99844673
-69.83228955,26.39312108,14.76456086,9.94643940,0.90972118,-1.28413667,2.01594352

>  <Name>
ligand

>  <RI>
0

>  <Rbt.Current_Directory>
/home/itssahil/PROJECTS/Mol_Feturizer/New_Systems/rnas/4PDQ

>  <Rbt.Executable>
rbdock ($Id: //depot/dev/client3/rdock/2013.1/src/exe/rbdock.cxx#4 $)

>  <Rbt.Library>
libRbt.so (2013.1, Build901 2013/11/27)

>  <Rbt.Parameter_File>
/export/apps/rDock/src/rDock_2013.1_src/data/scripts/dock_solv.prm

>  <Rbt.Receptor>
prm/blind_docking_40.prm

>  <SCORE>
-0.418021

>  <SCORE.INTER>
-6.28935

>  <SCORE.INTER.CONST>
1

>  <SCORE.INTER.POLAR>
0

>  <SCORE.INTER.ROT>
13

>  <SCORE.INTER.SOLV>
31.2682

>  <SCORE.INTER.VDW>
-26.8823

>  <SCORE.INTER.norm>
-0.128354

>  <SCORE.INTRA>
2.22844

>  <SCORE.INTRA.DIHEDRAL>
-8.33727

>  <SCORE.INTRA.DIHEDRAL.0>
34.5115

>  <SCORE.INTRA.POLAR>
0

>  <SCORE.INTRA.POLAR.0>
0

>  <SCORE.INTRA.REPUL>
0.0503829

>  <SCORE.INTRA.REPUL.0>
0

>  <SCORE.INTRA.SOLV>
4.52215

>  <SCORE.INTRA.SOLV.lig_0>
-122.812

>  <SCORE.INTRA.VDW>
3.88409

>  <SCORE.INTRA.VDW.0>
-7.46208

>  <SCORE.INTRA.norm>
0.0454785

>  <SCORE.RESTR>
3.64288

>  <SCORE.RESTR.CAVITY>
3.64288

>  <SCORE.RESTR.norm>
0.0743446

>  <SCORE.SYSTEM>
0

>  <SCORE.SYSTEM.CONST>
0

>  <SCORE.SYSTEM.DIHEDRAL>
0

>  <SCORE.SYSTEM.SOLV>
0

>  <SCORE.SYSTEM.norm>
0

>  <SCORE.heavy>
49

>  <SCORE.norm>
-0.00853104

>  <RMSD>
12.195

$$$$
ligand
 OpenBabel11021811513D
libRbt.so/2013.1/901 2013/11/27
 49 52  0  0  0  0  0  0  0  0999 V2000
   27.0323   14.9293   12.6548 C   0  0  2  0  0  0  0  0  0  0  0  0
   25.7922   15.5478   12.4766 O   0  0  0  0  0  0  0  0  0  0  0  0
   27.4253   14.1422   11.3498 C   0  0  2  0  0  0  0  0  0  0  0  0
   27.4802   15.1122   10.1801 N   0  0  0  0  0  0  0  0  0  0  0  0
   24.9657   19.1273    8.0565 O   0  0  0  0  0  0  0  0  0  0  0  0
   26.4187   12.9978   11.0872 C   0  0  2  0  0  0  0  0  0  0  0  0
   24.4615   23.5830    9.3017 N   0  0  0  0  0  0  0  0  0  0  0  0
   26.3664   12.0427   12.2900 C   0  0  2  0  0  0  0  0  0  0  0  0
   25.9742   12.8023   13.6275 C   0  0  2  0  0  0  0  0  0  0  0  0
   26.9621   13.9549   13.8169 O   0  0  0  0  0  0  0  0  0  0  0  0
   25.9774   11.8400   14.8504 C   0  0  0  0  0  0  0  0  0  0  0  0
   25.2806   10.6244   14.6253 N   0  0  0  0  0  0  0  0  0  0  0  0
   24.0051   19.1273   10.8046 C   0  0  2  0  0  0  0  0  0  0  0  0
   23.7352   20.2366    9.8435 N   0  0  0  0  0  0  0  0  0  0  0  0
   25.5995   18.9985   10.9371 C   0  0  0  0  0  0  0  0  0  0  0  0
   25.9752   17.8602   11.9575 C   0  0  2  0  0  0  0  0  0  0  0  0
   27.4342   17.7187   12.0725 N   0  0  0  0  0  0  0  0  0  0  0  0
   25.3946   16.5107   11.4895 C   0  0  2  0  0  0  0  0  0  0  0  0
   23.8221   16.6047   11.3444 C   0  0  2  0  0  0  0  0  0  0  0  0
   23.3667   15.2715   10.9030 O   0  0  0  0  0  0  0  0  0  0  0  0
   23.4663   17.7314   10.2465 C   0  0  1  0  0  0  0  0  0  0  0  0
   22.0800   17.7931   10.1277 O   0  0  0  0  0  0  0  0  0  0  0  0
   23.6603   14.6779    9.7966 C   0  0  1  0  0  0  0  0  0  0  0  0
   22.9605   13.3073    9.5592 C   0  0  2  0  0  0  0  0  0  0  0  0
   23.7838   12.3067   10.0697 O   0  0  0  0  0  0  0  0  0  0  0  0
   22.9612   13.3131    8.0868 C   0  0  1  0  0  0  0  0  0  0  0  0
   22.6566   14.7656    7.6063 C   0  0  2  0  0  0  0  0  0  0  0  0
   23.3881   15.4588    8.5875 O   0  0  0  0  0  0  0  0  0  0  0  0
   21.1958   15.1655    7.3939 C   0  0  0  0  0  0  0  0  0  0  0  0
   21.2195   16.4277    6.7544 O   0  0  0  0  0  0  0  0  0  0  0  0
   25.1691   13.7424    7.1048 C   0  0  2  0  0  0  0  0  0  0  0  0
   24.3161   12.8338    7.6617 O   0  0  0  0  0  0  0  0  0  0  0  0
   25.2036   13.6405    5.6083 C   0  0  1  0  0  0  0  0  0  0  0  0
   29.5718   12.9558    7.6239 N   0  0  0  0  0  0  0  0  0  0  0  0
   23.5625   20.9199    6.2310 O   0  0  0  0  0  0  0  0  0  0  0  0
   26.2438   14.6805    5.0369 C   0  0  2  0  0  0  0  0  0  0  0  0
   27.6907   14.5063    5.6156 C   0  0  1  0  0  0  0  0  0  0  0  0
   27.6332   14.6180    7.0543 C   0  0  1  0  0  0  0  0  0  0  0  0
   26.6385   13.6275    7.6292 O   0  0  0  0  0  0  0  0  0  0  0  0
   29.0768   14.4034    7.6891 C   0  0  0  0  0  0  0  0  0  0  0  0
   25.6184   12.3501    5.2218 N   0  0  0  0  0  0  0  0  0  0  0  0
   26.7481   12.4171   10.1595 O   0  0  0  0  0  0  0  0  0  0  0  0
   22.8811   21.9556    8.1344 C   0  0  0  0  0  0  0  0  0  0  0  0
   28.0668   13.4577    5.3389 O   0  0  0  0  0  0  0  0  0  0  0  0
   25.8940   15.7358    5.3320 O   0  0  0  0  0  0  0  0  0  0  0  0
   24.3020   20.0918    8.4627 C   0  0  0  0  0  0  0  0  0  0  0  0
   23.3631   22.6916    9.1937 C   0  0  0  0  0  0  0  0  0  0  0  0
   23.9150   21.3611    7.5404 C   0  0  1  0  0  0  0  0  0  0  0  0
   27.6236   11.4423   12.4799 F   0  0  0  0  0  0  0  0  0  0  0  0
  1  2  1  6  0  0  0
  1 10  1  0  0  0  0
  1  3  1  0  0  0  0
  3  4  1  6  0  0  0
  3  6  1  0  0  0  0
  5 46  2  0  0  0  0
  6 42  1  6  0  0  0
  6  8  1  0  0  0  0
  7 47  1  0  0  0  0
  8  9  1  0  0  0  0
  8 49  1  1  0  0  0
  9 10  1  0  0  0  0
  9 11  1  1  0  0  0
 11 12  1  0  0  0  0
 13 14  1  6  0  0  0
 13 15  1  0  0  0  0
 13 21  1  0  0  0  0
 14 46  1  0  0  0  0
 15 16  1  0  0  0  0
 16 17  1  6  0  0  0
 16 18  1  0  0  0  0
 18  2  1  1  0  0  0
 18 19  1  0  0  0  0
 19 20  1  6  0  0  0
 19 21  1  0  0  0  0
 21 22  1  1  0  0  0
 23 20  1  1  0  0  0
 23 24  1  0  0  0  0
 23 28  1  0  0  0  0
 24 25  1  6  0  0  0
 24 26  1  0  0  0  0
 26 27  1  0  0  0  0
 26 32  1  1  0  0  0
 27 28  1  0  0  0  0
 27 29  1  1  0  0  0
 29 30  1  0  0  0  0
 31 32  1  1  0  0  0
 31 33  1  0  0  0  0
 31 39  1  0  0  0  0
 33 36  1  0  0  0  0
 33 41  1  1  0  0  0
 34 40  1  0  0  0  0
 35 48  1  0  0  0  0
 36 37  1  0  0  0  0
 36 45  1  1  0  0  0
 37 38  1  0  0  0  0
 37 44  1  1  0  0  0
 38 39  1  0  0  0  0
 38 40  1  1  0  0  0
 43 47  1  0  0  0  0
 46 48  1  0  0  0  0
 48 43  1  1  0  0  0
M  END
>  <CHROM.1>
-58.82305703,-77.74832592,-47.97268664,58.96142080,-63.35629040,-176.28849736
-109.18627805,-170.37617092,-100.52097730,-71.63022082,46.04113490,-162.62905172
40.34991929,25.19382162,15.62035794,9.40632854,0.19231823,-1.23009581,1.44839416

>  <Name>
ligand

>  <RI>
0

>  <Rbt.Current_Directory>
/home/itssahil/PROJECTS/Mol_Feturizer/New_Systems/rnas/4PDQ

>  <Rbt.Executable>
rbdock ($Id: //depot/dev/client3/rdock/2013.1/src/exe/rbdock.cxx#4 $)

>  <Rbt.Library>
libRbt.so (2013.1, Build901 2013/11/27)

>  <Rbt.Parameter_File>
/export/apps/rDock/src/rDock_2013.1_src/data/scripts/dock_solv.prm

>  <Rbt.Receptor>
prm/blind_docking_40.prm

>  <SCORE>
2.05377

>  <SCORE.INTER>
-2.3275

>  <SCORE.INTER.CONST>
1

>  <SCORE.INTER.POLAR>
0

>  <SCORE.INTER.ROT>
13

>  <SCORE.INTER.SOLV>
28.7385

>  <SCORE.INTER.VDW>
-23.3978

>  <SCORE.INTER.norm>
-0.0475

>  <SCORE.INTRA>
3.39562

>  <SCORE.INTRA.DIHEDRAL>
-15.7005

>  <SCORE.INTRA.DIHEDRAL.0>
34.5115

>  <SCORE.INTRA.POLAR>
0

>  <SCORE.INTRA.POLAR.0>
0

>  <SCORE.INTRA.REPUL>
0.00295055

>  <SCORE.INTRA.REPUL.0>
0

>  <SCORE.INTRA.SOLV>
9.82799

>  <SCORE.INTRA.SOLV.lig_0>
-122.812

>  <SCORE.INTRA.VDW>
6.3171

>  <SCORE.INTRA.VDW.0>
-7.46208

>  <SCORE.INTRA.norm>
0.0692984

>  <SCORE.RESTR>
0.985646

>  <SCORE.RESTR.CAVITY>
0.985646

>  <SCORE.RESTR.norm>
0.0201152

>  <SCORE.SYSTEM>
0

>  <SCORE.SYSTEM.CONST>
0

>  <SCORE.SYSTEM.DIHEDRAL>
0

>  <SCORE.SYSTEM.SOLV>
0

>  <SCORE.SYSTEM.norm>
0

>  <SCORE.heavy>
49

>  <SCORE.norm>
0.0419136

>  <RMSD>
12.230

$$$$
ligand
 OpenBabel11021811513D
libRbt.so/2013.1/901 2013/11/27
 49 52  0  0  0  0  0  0  0  0999 V2000
   25.7166   12.6690   13.5635 C   0  0  2  0  0  0  0  0  0  0  0  0
   26.1468   13.1667   12.3310 O   0  0  0  0  0  0  0  0  0  0  0  0
   26.8923   12.7467   14.6070 C   0  0  2  0  0  0  0  0  0  0  0  0
   27.3400   14.1932   14.7467 N   0  0  0  0  0  0  0  0  0  0  0  0
   25.7684   17.9664    9.2236 O   0  0  0  0  0  0  0  0  0  0  0  0
   28.0616   11.8337   14.1700 C   0  0  2  0  0  0  0  0  0  0  0  0
   22.9005   22.2458    8.2779 N   0  0  0  0  0  0  0  0  0  0  0  0
   27.5806   10.3823   14.0165 C   0  0  2  0  0  0  0  0  0  0  0  0
   26.3916   10.2642   12.9714 C   0  0  2  0  0  0  0  0  0  0  0  0
   25.2837   11.2216   13.4143 O   0  0  0  0  0  0  0  0  0  0  0  0
   25.8729    8.8011   12.8626 C   0  0  0  0  0  0  0  0  0  0  0  0
   26.8322    7.8891   12.3507 N   0  0  0  0  0  0  0  0  0  0  0  0
   24.6532   17.2031   11.8021 C   0  0  2  0  0  0  0  0  0  0  0  0
   24.4175   18.5345   11.1705 N   0  0  0  0  0  0  0  0  0  0  0  0
   26.2219   16.8909   11.6676 C   0  0  0  0  0  0  0  0  0  0  0  0
   26.5650   15.5066   12.3342 C   0  0  2  0  0  0  0  0  0  0  0  0
   27.9967   15.1997   12.1997 N   0  0  0  0  0  0  0  0  0  0  0  0
   25.7633   14.3758   11.6594 C   0  0  2  0  0  0  0  0  0  0  0  0
   24.2101   14.6553   11.7706 C   0  0  2  0  0  0  0  0  0  0  0  0
   23.5369   13.5214   11.1070 O   0  0  0  0  0  0  0  0  0  0  0  0
   23.8759   16.0453   11.0238 C   0  0  1  0  0  0  0  0  0  0  0  0
   22.5051   16.2691   11.1258 O   0  0  0  0  0  0  0  0  0  0  0  0
   23.6882   13.1355    9.8859 C   0  0  1  0  0  0  0  0  0  0  0  0
   25.1233   13.2899    9.3018 C   0  0  2  0  0  0  0  0  0  0  0  0
   25.2118   14.5408    8.6956 O   0  0  0  0  0  0  0  0  0  0  0  0
   25.0725   12.2061    8.3064 C   0  0  1  0  0  0  0  0  0  0  0  0
   24.2976   11.0062    8.9334 C   0  0  2  0  0  0  0  0  0  0  0  0
   23.3214   11.7405    9.6307 O   0  0  0  0  0  0  0  0  0  0  0  0
   25.0941    9.9608    9.7156 C   0  0  0  0  0  0  0  0  0  0  0  0
   26.2628   10.6141   10.1735 O   0  0  0  0  0  0  0  0  0  0  0  0
   25.1339   13.5163    6.2320 C   0  0  2  0  0  0  0  0  0  0  0  0
   24.3876   12.7714    7.0990 O   0  0  0  0  0  0  0  0  0  0  0  0
   26.5809   13.1200    6.2485 C   0  0  1  0  0  0  0  0  0  0  0  0
   26.4043   18.4327    4.9897 N   0  0  0  0  0  0  0  0  0  0  0  0
   25.8788   21.0650    9.2706 O   0  0  0  0  0  0  0  0  0  0  0  0
   27.3899   14.0522    5.2653 C   0  0  2  0  0  0  0  0  0  0  0  0
   27.2529   15.5799    5.5909 C   0  0  1  0  0  0  0  0  0  0  0  0
   25.8545   15.9390    5.5595 C   0  0  1  0  0  0  0  0  0  0  0  0
   25.0534   15.0559    6.4973 O   0  0  0  0  0  0  0  0  0  0  0  0
   25.6641   17.4755    5.9282 C   0  0  0  0  0  0  0  0  0  0  0  0
   27.1119   13.2851    7.5435 N   0  0  0  0  0  0  0  0  0  0  0  0
   28.8839   11.8759   14.9627 O   0  0  0  0  0  0  0  0  0  0  0  0
   24.2349   20.0836    8.0482 C   0  0  0  0  0  0  0  0  0  0  0  0
   27.6598   15.7619    6.6487 O   0  0  0  0  0  0  0  0  0  0  0  0
   26.9727   13.9012    4.2040 O   0  0  0  0  0  0  0  0  0  0  0  0
   25.0645   18.7790    9.8399 C   0  0  0  0  0  0  0  0  0  0  0  0
   23.7122   21.2843    7.6226 C   0  0  0  0  0  0  0  0  0  0  0  0
   24.7066   20.2531    9.2827 C   0  0  1  0  0  0  0  0  0  0  0  0
   27.1255    9.8950   15.2545 F   0  0  0  0  0  0  0  0  0  0  0  0
  1  2  1  6  0  0  0
  1 10  1  0  0  0  0
  1  3  1  0  0  0  0
  3  4  1  6  0  0  0
  3  6  1  0  0  0  0
  5 46  2  0  0  0  0
  6 42  1  1  0  0  0
  6  8  1  0  0  0  0
  7 47  1  0  0  0  0
  8  9  1  0  0  0  0
  8 49  1  1  0  0  0
  9 10  1  0  0  0  0
  9 11  1  1  0  0  0
 11 12  1  0  0  0  0
 13 14  1  6  0  0  0
 13 15  1  0  0  0  0
 13 21  1  0  0  0  0
 14 46  1  0  0  0  0
 15 16  1  0  0  0  0
 16 17  1  6  0  0  0
 16 18  1  0  0  0  0
 18  2  1  1  0  0  0
 18 19  1  0  0  0  0
 19 20  1  6  0  0  0
 19 21  1  0  0  0  0
 21 22  1  1  0  0  0
 23 20  1  1  0  0  0
 23 24  1  0  0  0  0
 23 28  1  0  0  0  0
 24 25  1  6  0  0  0
 24 26  1  0  0  0  0
 26 27  1  0  0  0  0
 26 32  1  6  0  0  0
 27 28  1  0  0  0  0
 27 29  1  1  0  0  0
 29 30  1  0  0  0  0
 31 32  1  1  0  0  0
 31 33  1  0  0  0  0
 31 39  1  0  0  0  0
 33 36  1  0  0  0  0
 33 41  1  1  0  0  0
 34 40  1  0  0  0  0
 35 48  1  0  0  0  0
 36 37  1  0  0  0  0
 36 45  1  6  0  0  0
 37 38  1  0  0  0  0
 37 44  1  1  0  0  0
 38 39  1  0  0  0  0
 38 40  1  1  0  0  0
 43 47  1  0  0  0  0
 46 48  1  0  0  0  0
 48 43  1  6  0  0  0
M  END
>  <CHROM.1>
-110.47310873,79.37567363,-64.32723628,45.58176779,-58.24637569,35.06962317
81.62637058,24.85010642,27.71980954,59.02862680,-43.15304630,-70.45754068
-68.62106815,25.66981376,14.45627896,10.00077359,0.47527970,-1.40539896,1.41169165

>  <Name>
ligand

>  <RI>
0

>  <Rbt.Current_Directory>
/home/itssahil/PROJECTS/Mol_Feturizer/New_Systems/rnas/4PDQ

>  <Rbt.Executable>
rbdock ($Id: //depot/dev/client3/rdock/2013.1/src/exe/rbdock.cxx#4 $)

>  <Rbt.Library>
libRbt.so (2013.1, Build901 2013/11/27)

>  <Rbt.Parameter_File>
/export/apps/rDock/src/rDock_2013.1_src/data/scripts/dock_solv.prm

>  <Rbt.Receptor>
prm/blind_docking_80.prm

>  <SCORE>
26.7238

>  <SCORE.INTER>
2.38474

>  <SCORE.INTER.CONST>
1

>  <SCORE.INTER.POLAR>
0

>  <SCORE.INTER.ROT>
13

>  <SCORE.INTER.SOLV>
30.3978

>  <SCORE.INTER.VDW>
-20.8094

>  <SCORE.INTER.norm>
0.0486682

>  <SCORE.INTRA>
17.3661

>  <SCORE.INTRA.DIHEDRAL>
-9.89737

>  <SCORE.INTRA.DIHEDRAL.0>
34.5115

>  <SCORE.INTRA.POLAR>
0

>  <SCORE.INTRA.POLAR.0>
0

>  <SCORE.INTRA.REPUL>
0.478958

>  <SCORE.INTRA.REPUL.0>
0

>  <SCORE.INTRA.SOLV>
10.3721

>  <SCORE.INTRA.SOLV.lig_0>
-122.812

>  <SCORE.INTRA.VDW>
14.734

>  <SCORE.INTRA.VDW.0>
-7.46208

>  <SCORE.INTRA.norm>
0.354411

>  <SCORE.RESTR>
6.9729

>  <SCORE.RESTR.CAVITY>
6.9729

>  <SCORE.RESTR.norm>
0.142304

>  <SCORE.SYSTEM>
0

>  <SCORE.SYSTEM.CONST>
0

>  <SCORE.SYSTEM.DIHEDRAL>
0

>  <SCORE.SYSTEM.SOLV>
0

>  <SCORE.SYSTEM.norm>
0

>  <SCORE.heavy>
49

>  <SCORE.norm>
0.545383

>  <RMSD>
12.238

$$$$
ligand
 OpenBabel11021811513D
libRbt.so/2013.1/901 2013/11/27
 49 52  0  0  0  0  0  0  0  0999 V2000
   25.5525   12.5786   13.2821 C   0  0  2  0  0  0  0  0  0  0  0  0
   26.4084   13.6467   13.5626 O   0  0  0  0  0  0  0  0  0  0  0  0
   25.6079   11.5316   14.4560 C   0  0  2  0  0  0  0  0  0  0  0  0
   25.1974   12.2134   15.7518 N   0  0  0  0  0  0  0  0  0  0  0  0
   24.0873   19.1317   10.2567 O   0  0  0  0  0  0  0  0  0  0  0  0
   27.0236   10.9186   14.5648 C   0  0  2  0  0  0  0  0  0  0  0  0
   23.5693   23.5888   10.9328 N   0  0  0  0  0  0  0  0  0  0  0  0
   27.4236   10.2535   13.2385 C   0  0  2  0  0  0  0  0  0  0  0  0
   27.3778   11.2799   12.0285 C   0  0  2  0  0  0  0  0  0  0  0  0
   25.9791   11.8986   11.9935 O   0  0  0  0  0  0  0  0  0  0  0  0
   27.7299   10.5867   10.6805 C   0  0  0  0  0  0  0  0  0  0  0  0
   26.9349    9.4456   10.3977 N   0  0  0  0  0  0  0  0  0  0  0  0
   25.9338   17.6408   11.9425 C   0  0  2  0  0  0  0  0  0  0  0  0
   26.2868   18.9340   11.2866 N   0  0  0  0  0  0  0  0  0  0  0  0
   27.0864   17.3285   13.0151 C   0  0  0  0  0  0  0  0  0  0  0  0
   26.7787   15.9850   13.7757 C   0  0  2  0  0  0  0  0  0  0  0  0
   27.8383   15.6773   14.7475 N   0  0  0  0  0  0  0  0  0  0  0  0
   26.6856   14.8148   12.7762 C   0  0  2  0  0  0  0  0  0  0  0  0
   25.5595   15.0933   11.7005 C   0  0  2  0  0  0  0  0  0  0  0  0
   25.5455   13.9213   10.8030 O   0  0  0  0  0  0  0  0  0  0  0  0
   25.9322   16.4381   10.8918 C   0  0  1  0  0  0  0  0  0  0  0  0
   24.9345   16.6613    9.9460 O   0  0  0  0  0  0  0  0  0  0  0  0
   24.9629   13.8286    9.6563 C   0  0  1  0  0  0  0  0  0  0  0  0
   24.4393   12.4119    9.2774 C   0  0  2  0  0  0  0  0  0  0  0  0
   25.4480   11.7492    8.5823 O   0  0  0  0  0  0  0  0  0  0  0  0
   23.3398   12.8161    8.3854 C   0  0  1  0  0  0  0  0  0  0  0  0
   22.6577   14.0791    8.9961 C   0  0  2  0  0  0  0  0  0  0  0  0
   23.8148   14.7199    9.4748 O   0  0  0  0  0  0  0  0  0  0  0  0
   21.5017   13.8740    9.9760 C   0  0  0  0  0  0  0  0  0  0  0  0
   22.0473   13.2066   11.0983 O   0  0  0  0  0  0  0  0  0  0  0  0
   24.7458   14.1868    6.9131 C   0  0  2  0  0  0  0  0  0  0  0  0
   23.9567   13.0808    7.0454 O   0  0  0  0  0  0  0  0  0  0  0  0
   24.8361   14.6483    5.4883 C   0  0  1  0  0  0  0  0  0  0  0  0
   29.1813   13.5656    7.3749 N   0  0  0  0  0  0  0  0  0  0  0  0
   26.4539   20.7208    8.5986 O   0  0  0  0  0  0  0  0  0  0  0  0
   25.8007   15.8941    5.4020 C   0  0  2  0  0  0  0  0  0  0  0  0
   27.2383   15.6171    5.9637 C   0  0  1  0  0  0  0  0  0  0  0  0
   27.1261   15.1844    7.3369 C   0  0  1  0  0  0  0  0  0  0  0  0
   26.2024   13.9863    7.4473 O   0  0  0  0  0  0  0  0  0  0  0  0
   28.5621   14.8490    7.9357 C   0  0  0  0  0  0  0  0  0  0  0  0
   25.3719   13.6240    4.6821 N   0  0  0  0  0  0  0  0  0  0  0  0
   27.0272   10.1337   15.3956 O   0  0  0  0  0  0  0  0  0  0  0  0
   24.6724   21.7176    9.5948 C   0  0  0  0  0  0  0  0  0  0  0  0
   27.7115   14.7735    5.3456 O   0  0  0  0  0  0  0  0  0  0  0  0
   25.3527   16.7390    6.0413 O   0  0  0  0  0  0  0  0  0  0  0  0
   25.2274   19.5796   10.4442 C   0  0  0  0  0  0  0  0  0  0  0  0
   24.5712   22.6355   10.6162 C   0  0  0  0  0  0  0  0  0  0  0  0
   25.7543   20.9719    9.8155 C   0  0  1  0  0  0  0  0  0  0  0  0
   26.5439    9.1954   12.9488 F   0  0  0  0  0  0  0  0  0  0  0  0
  1  2  1  1  0  0  0
  1 10  1  0  0  0  0
  1  3  1  0  0  0  0
  3  4  1  1  0  0  0
  3  6  1  0  0  0  0
  5 46  2  0  0  0  0
  6 42  1  1  0  0  0
  6  8  1  0  0  0  0
  7 47  1  0  0  0  0
  8  9  1  0  0  0  0
  8 49  1  6  0  0  0
  9 10  1  0  0  0  0
  9 11  1  6  0  0  0
 11 12  1  0  0  0  0
 13 14  1  6  0  0  0
 13 15  1  0  0  0  0
 13 21  1  0  0  0  0
 14 46  1  0  0  0  0
 15 16  1  0  0  0  0
 16 17  1  1  0  0  0
 16 18  1  0  0  0  0
 18  2  1  1  0  0  0
 18 19  1  0  0  0  0
 19 20  1  6  0  0  0
 19 21  1  0  0  0  0
 21 22  1  6  0  0  0
 23 20  1  1  0  0  0
 23 24  1  0  0  0  0
 23 28  1  0  0  0  0
 24 25  1  6  0  0  0
 24 26  1  0  0  0  0
 26 27  1  0  0  0  0
 26 32  1  6  0  0  0
 27 28  1  0  0  0  0
 27 29  1  1  0  0  0
 29 30  1  0  0  0  0
 31 32  1  6  0  0  0
 31 33  1  0  0  0  0
 31 39  1  0  0  0  0
 33 36  1  0  0  0  0
 33 41  1  6  0  0  0
 34 40  1  0  0  0  0
 35 48  1  0  0  0  0
 36 37  1  0  0  0  0
 36 45  1  1  0  0  0
 37 38  1  0  0  0  0
 37 44  1  6  0  0  0
 38 39  1  0  0  0  0
 38 40  1  6  0  0  0
 43 47  1  0  0  0  0
 46 48  1  0  0  0  0
 48 43  1  6  0  0  0
M  END
>  <CHROM.1>
179.38607710,140.32365893,54.06573703,-168.00832749,-166.32741092,-148.32367177
-70.51673630,63.89146625,-156.70464600,-71.61906119,-174.34714482,-139.55318907
-95.16803109,25.70694834,14.79570177,10.23721371,-0.10089480,-1.44825410
1.04603879

>  <Name>
ligand

>  <RI>
0

>  <Rbt.Current_Directory>
/home/itssahil/PROJECTS/Mol_Feturizer/New_Systems/rnas/4PDQ

>  <Rbt.Executable>
rbdock ($Id: //depot/dev/client3/rdock/2013.1/src/exe/rbdock.cxx#4 $)

>  <Rbt.Library>
libRbt.so (2013.1, Build901 2013/11/27)

>  <Rbt.Parameter_File>
/export/apps/rDock/src/rDock_2013.1_src/data/scripts/dock_solv.prm

>  <Rbt.Receptor>
prm/blind_docking_40.prm

>  <SCORE>
-4.08519

>  <SCORE.INTER>
-6.57497

>  <SCORE.INTER.CONST>
1

>  <SCORE.INTER.POLAR>
0

>  <SCORE.INTER.ROT>
13

>  <SCORE.INTER.SOLV>
32.7658

>  <SCORE.INTER.VDW>
-27.5719

>  <SCORE.INTER.norm>
-0.134183

>  <SCORE.INTRA>
1.58856

>  <SCORE.INTRA.DIHEDRAL>
-15.2123

>  <SCORE.INTRA.DIHEDRAL.0>
34.5115

>  <SCORE.INTRA.POLAR>
0

>  <SCORE.INTRA.POLAR.0>
0

>  <SCORE.INTRA.REPUL>
0.0616243

>  <SCORE.INTRA.REPUL.0>
0

>  <SCORE.INTRA.SOLV>
2.03496

>  <SCORE.INTRA.SOLV.lig_0>
-122.812

>  <SCORE.INTRA.VDW>
7.86912

>  <SCORE.INTRA.VDW.0>
-7.46208

>  <SCORE.INTRA.norm>
0.0324197

>  <SCORE.RESTR>
0.90121

>  <SCORE.RESTR.CAVITY>
0.90121

>  <SCORE.RESTR.norm>
0.018392

>  <SCORE.SYSTEM>
0

>  <SCORE.SYSTEM.CONST>
0

>  <SCORE.SYSTEM.DIHEDRAL>
0

>  <SCORE.SYSTEM.SOLV>
0

>  <SCORE.SYSTEM.norm>
0

>  <SCORE.heavy>
49

>  <SCORE.norm>
-0.0833713

>  <RMSD>
12.256

$$$$
ligand
 OpenBabel11021811513D
libRbt.so/2013.1/901 2013/11/27
 49 52  0  0  0  0  0  0  0  0999 V2000
   26.8084   12.3024   13.8786 C   0  0  2  0  0  0  0  0  0  0  0  0
   27.4178   13.2540   13.0570 O   0  0  0  0  0  0  0  0  0  0  0  0
   27.8829   11.6563   14.8300 C   0  0  2  0  0  0  0  0  0  0  0  0
   28.5256   12.7485   15.6705 N   0  0  0  0  0  0  0  0  0  0  0  0
   25.7414   17.6550    9.7321 O   0  0  0  0  0  0  0  0  0  0  0  0
   28.9388   10.8845   14.0046 C   0  0  2  0  0  0  0  0  0  0  0  0
   21.7383   17.9451   11.0759 N   0  0  0  0  0  0  0  0  0  0  0  0
   28.2639    9.8007   13.1494 C   0  0  2  0  0  0  0  0  0  0  0  0
   27.1705   10.4152   12.1766 C   0  0  2  0  0  0  0  0  0  0  0  0
   26.1811   11.2115   13.0294 O   0  0  0  0  0  0  0  0  0  0  0  0
   26.4527    9.3061   11.3542 C   0  0  0  0  0  0  0  0  0  0  0  0
   25.1781    9.6908   10.8629 N   0  0  0  0  0  0  0  0  0  0  0  0
   24.7267   16.5513   12.2275 C   0  0  2  0  0  0  0  0  0  0  0  0
   24.2023   17.8072   11.6152 N   0  0  0  0  0  0  0  0  0  0  0  0
   26.2546   16.8292   12.6332 C   0  0  0  0  0  0  0  0  0  0  0  0
   26.8822   15.5556   13.3131 C   0  0  2  0  0  0  0  0  0  0  0  0
   28.2886   15.7910   13.6714 N   0  0  0  0  0  0  0  0  0  0  0  0
   26.8240   14.3529   12.3503 C   0  0  2  0  0  0  0  0  0  0  0  0
   25.3292   14.0542   11.9266 C   0  0  2  0  0  0  0  0  0  0  0  0
   25.3808   12.8912   11.0188 O   0  0  0  0  0  0  0  0  0  0  0  0
   24.7317   15.3501   11.1749 C   0  0  1  0  0  0  0  0  0  0  0  0
   23.4200   15.0648   10.8036 O   0  0  0  0  0  0  0  0  0  0  0  0
   24.8966   12.8154    9.8260 C   0  0  1  0  0  0  0  0  0  0  0  0
   25.4847   11.6867    8.9290 C   0  0  2  0  0  0  0  0  0  0  0  0
   26.5686   12.2108    8.2287 O   0  0  0  0  0  0  0  0  0  0  0  0
   24.3214   11.4757    8.0515 C   0  0  1  0  0  0  0  0  0  0  0  0
   23.0306   11.5864    8.9205 C   0  0  2  0  0  0  0  0  0  0  0  0
   23.4444   12.6356    9.7610 O   0  0  0  0  0  0  0  0  0  0  0  0
   22.4927   10.3163    9.5810 C   0  0  0  0  0  0  0  0  0  0  0  0
   22.9588    9.2341    8.7972 O   0  0  0  0  0  0  0  0  0  0  0  0
   24.4861   13.8319    7.3845 C   0  0  2  0  0  0  0  0  0  0  0  0
   24.3964   12.5288    6.9877 O   0  0  0  0  0  0  0  0  0  0  0  0
   23.2864   14.6318    6.9700 C   0  0  1  0  0  0  0  0  0  0  0  0
   27.2732   16.7433    5.1468 N   0  0  0  0  0  0  0  0  0  0  0  0
   24.9810   20.2068    8.7920 O   0  0  0  0  0  0  0  0  0  0  0  0
   23.4798   16.1335    7.4144 C   0  0  2  0  0  0  0  0  0  0  0  0
   24.7828   16.7953    6.8461 C   0  0  1  0  0  0  0  0  0  0  0  0
   25.9227   16.0144    7.2659 C   0  0  1  0  0  0  0  0  0  0  0  0
   25.7610   14.5644    6.8504 O   0  0  0  0  0  0  0  0  0  0  0  0
   27.2673   16.6262    6.6737 C   0  0  0  0  0  0  0  0  0  0  0  0
   23.1495   14.6052    5.5675 N   0  0  0  0  0  0  0  0  0  0  0  0
   29.6829   10.3917   14.7186 O   0  0  0  0  0  0  0  0  0  0  0  0
   22.9716   19.2631    9.2731 C   0  0  0  0  0  0  0  0  0  0  0  0
   24.7247   16.7817    5.6998 O   0  0  0  0  0  0  0  0  0  0  0  0
   23.5686   16.1591    8.5610 O   0  0  0  0  0  0  0  0  0  0  0  0
   24.8318   18.2494   10.3280 C   0  0  0  0  0  0  0  0  0  0  0  0
   22.0872   19.0900   10.3141 C   0  0  0  0  0  0  0  0  0  0  0  0
   24.1508   19.6112    9.7866 C   0  0  1  0  0  0  0  0  0  0  0  0
   27.6311    8.8596   13.9809 F   0  0  0  0  0  0  0  0  0  0  0  0
  1  2  1  6  0  0  0
  1 10  1  0  0  0  0
  1  3  1  0  0  0  0
  3  4  1  6  0  0  0
  3  6  1  0  0  0  0
  5 46  2  0  0  0  0
  6 42  1  1  0  0  0
  6  8  1  0  0  0  0
  7 47  1  0  0  0  0
  8  9  1  0  0  0  0
  8 49  1  1  0  0  0
  9 10  1  0  0  0  0
  9 11  1  1  0  0  0
 11 12  1  0  0  0  0
 13 14  1  6  0  0  0
 13 15  1  0  0  0  0
 13 21  1  0  0  0  0
 14 46  1  0  0  0  0
 15 16  1  0  0  0  0
 16 17  1  6  0  0  0
 16 18  1  0  0  0  0
 18  2  1  1  0  0  0
 18 19  1  0  0  0  0
 19 20  1  6  0  0  0
 19 21  1  0  0  0  0
 21 22  1  1  0  0  0
 23 20  1  1  0  0  0
 23 24  1  0  0  0  0
 23 28  1  0  0  0  0
 24 25  1  6  0  0  0
 24 26  1  0  0  0  0
 26 27  1  0  0  0  0
 26 32  1  6  0  0  0
 27 28  1  0  0  0  0
 27 29  1  1  0  0  0
 29 30  1  0  0  0  0
 31 32  1  6  0  0  0
 31 33  1  0  0  0  0
 31 39  1  0  0  0  0
 33 36  1  0  0  0  0
 33 41  1  6  0  0  0
 34 40  1  0  0  0  0
 35 48  1  0  0  0  0
 36 37  1  0  0  0  0
 36 45  1  1  0  0  0
 37 38  1  0  0  0  0
 37 44  1  6  0  0  0
 38 39  1  0  0  0  0
 38 40  1  6  0  0  0
 43 47  1  0  0  0  0
 46 48  1  0  0  0  0
 48 43  1  6  0  0  0
M  END
>  <CHROM.1>
-158.93112955,90.58420443,157.76121010,64.57080791,-125.46660316,160.31566202
-54.34643665,-24.84377250,-115.67135858,-56.74861466,-91.24026217,-161.69294690
-16.78690788,25.39610928,14.11815001,10.28680743,-0.65839555,-1.11083290
0.19389844

>  <Name>
ligand

>  <RI>
0

>  <Rbt.Current_Directory>
/home/itssahil/PROJECTS/Mol_Feturizer/New_Systems/rnas/4PDQ

>  <Rbt.Executable>
rbdock ($Id: //depot/dev/client3/rdock/2013.1/src/exe/rbdock.cxx#4 $)

>  <Rbt.Library>
libRbt.so (2013.1, Build901 2013/11/27)

>  <Rbt.Parameter_File>
/export/apps/rDock/src/rDock_2013.1_src/data/scripts/dock_solv.prm

>  <Rbt.Receptor>
prm/blind_docking_80.prm

>  <SCORE>
37.6168

>  <SCORE.INTER>
24.9717

>  <SCORE.INTER.CONST>
1

>  <SCORE.INTER.POLAR>
0

>  <SCORE.INTER.ROT>
13

>  <SCORE.INTER.SOLV>
35.8744

>  <SCORE.INTER.VDW>
-7.57701

>  <SCORE.INTER.norm>
0.509626

>  <SCORE.INTRA>
9.84837

>  <SCORE.INTRA.DIHEDRAL>
-2.66685

>  <SCORE.INTRA.DIHEDRAL.0>
34.5115

>  <SCORE.INTRA.POLAR>
0

>  <SCORE.INTRA.POLAR.0>
0

>  <SCORE.INTRA.REPUL>
0

>  <SCORE.INTRA.REPUL.0>
0

>  <SCORE.INTRA.SOLV>
14.2747

>  <SCORE.INTRA.SOLV.lig_0>
-122.812

>  <SCORE.INTRA.VDW>
4.04445

>  <SCORE.INTRA.VDW.0>
-7.46208

>  <SCORE.INTRA.norm>
0.200987

>  <SCORE.RESTR>
2.79672

>  <SCORE.RESTR.CAVITY>
2.79672

>  <SCORE.RESTR.norm>
0.0570759

>  <SCORE.SYSTEM>
0

>  <SCORE.SYSTEM.CONST>
0

>  <SCORE.SYSTEM.DIHEDRAL>
0

>  <SCORE.SYSTEM.SOLV>
0

>  <SCORE.SYSTEM.norm>
0

>  <SCORE.heavy>
49

>  <SCORE.norm>
0.767689

>  <RMSD>
12.259

$$$$
ligand
 OpenBabel11021811513D
libRbt.so/2013.1/901 2013/11/27
 49 52  0  0  0  0  0  0  0  0999 V2000
   23.1762   19.4764    9.4290 C   0  0  2  0  0  0  0  0  0  0  0  0
   24.3793   18.8161    9.6906 O   0  0  0  0  0  0  0  0  0  0  0  0
   22.8522   19.3999    7.8907 C   0  0  2  0  0  0  0  0  0  0  0  0
   22.7576   17.9407    7.4732 N   0  0  0  0  0  0  0  0  0  0  0  0
   25.8854   17.6305   15.1057 O   0  0  0  0  0  0  0  0  0  0  0  0
   23.9302   20.1514    7.0751 C   0  0  2  0  0  0  0  0  0  0  0  0
   25.0018   16.8596   18.5839 N   0  0  0  0  0  0  0  0  0  0  0  0
   24.0209   21.6171    7.5282 C   0  0  2  0  0  0  0  0  0  0  0  0
   24.3451   21.7347    9.0776 C   0  0  2  0  0  0  0  0  0  0  0  0
   23.2865   20.9341    9.8384 O   0  0  0  0  0  0  0  0  0  0  0  0
   24.3804   23.2200    9.5405 C   0  0  0  0  0  0  0  0  0  0  0  0
   24.8078   23.3923   10.8827 N   0  0  0  0  0  0  0  0  0  0  0  0
   27.2609   17.3108   12.5600 C   0  0  2  0  0  0  0  0  0  0  0  0
   27.8963   17.0111   13.8766 N   0  0  0  0  0  0  0  0  0  0  0  0
   26.7953   18.8463   12.6021 C   0  0  0  0  0  0  0  0  0  0  0  0
   26.1322   19.2564   11.2345 C   0  0  2  0  0  0  0  0  0  0  0  0
   25.6830   20.6561   11.2677 N   0  0  0  0  0  0  0  0  0  0  0  0
   24.9090   18.3635   10.9453 C   0  0  2  0  0  0  0  0  0  0  0  0
   25.3333   16.8401   10.9012 C   0  0  2  0  0  0  0  0  0  0  0  0
   24.1034   16.0760   10.6131 O   0  0  0  0  0  0  0  0  0  0  0  0
   25.9488   16.4287   12.3341 C   0  0  1  0  0  0  0  0  0  0  0  0
   26.3083   15.0843   12.2775 O   0  0  0  0  0  0  0  0  0  0  0  0
   24.0242   14.8440   10.2406 C   0  0  1  0  0  0  0  0  0  0  0  0
   22.5898   14.2388   10.2099 C   0  0  2  0  0  0  0  0  0  0  0  0
   22.3377   13.6597   11.4513 O   0  0  0  0  0  0  0  0  0  0  0  0
   22.8042   13.2200    9.1686 C   0  0  1  0  0  0  0  0  0  0  0  0
   23.7288   13.8331    8.0719 C   0  0  2  0  0  0  0  0  0  0  0  0
   24.5841   14.5637    8.9164 O   0  0  0  0  0  0  0  0  0  0  0  0
   23.0738   14.5773    6.9074 C   0  0  0  0  0  0  0  0  0  0  0  0
   22.0843   15.4131    7.4777 O   0  0  0  0  0  0  0  0  0  0  0  0
   24.7437   12.1099   10.1831 C   0  0  2  0  0  0  0  0  0  0  0  0
   23.4211   12.0379    9.8528 O   0  0  0  0  0  0  0  0  0  0  0  0
   25.5219   10.9414    9.6538 C   0  0  1  0  0  0  0  0  0  0  0  0
   25.9875   11.2016   14.4848 N   0  0  0  0  0  0  0  0  0  0  0  0
   28.3119   18.0405   17.0970 O   0  0  0  0  0  0  0  0  0  0  0  0
   27.0262   11.0627   10.1145 C   0  0  2  0  0  0  0  0  0  0  0  0
   27.2025   11.1587   11.6696 C   0  0  1  0  0  0  0  0  0  0  0  0
   26.4536   12.2947   12.1537 C   0  0  1  0  0  0  0  0  0  0  0  0
   25.0019   12.2021   11.7233 O   0  0  0  0  0  0  0  0  0  0  0  0
   26.5684   12.4053   13.7373 C   0  0  0  0  0  0  0  0  0  0  0  0
   25.0012    9.7393   10.1735 N   0  0  0  0  0  0  0  0  0  0  0  0
   23.6513   20.1165    5.9673 O   0  0  0  0  0  0  0  0  0  0  0  0
   27.0377   16.1636   17.2131 C   0  0  0  0  0  0  0  0  0  0  0  0
   26.7753   10.2035   12.1414 O   0  0  0  0  0  0  0  0  0  0  0  0
   27.4593   12.0321    9.6718 O   0  0  0  0  0  0  0  0  0  0  0  0
   27.0582   17.2303   15.1007 C   0  0  0  0  0  0  0  0  0  0  0  0
   26.0583   17.0264   17.6519 C   0  0  0  0  0  0  0  0  0  0  0  0
   27.8779   16.8512   16.4408 C   0  0  1  0  0  0  0  0  0  0  0  0
   22.7993   22.2699    7.2855 F   0  0  0  0  0  0  0  0  0  0  0  0
  1  2  1  6  0  0  0
  1 10  1  0  0  0  0
  1  3  1  0  0  0  0
  3  4  1  6  0  0  0
  3  6  1  0  0  0  0
  5 46  2  0  0  0  0
  6 42  1  6  0  0  0
  6  8  1  0  0  0  0
  7 47  1  0  0  0  0
  8  9  1  0  0  0  0
  8 49  1  1  0  0  0
  9 10  1  0  0  0  0
  9 11  1  1  0  0  0
 11 12  1  0  0  0  0
 13 14  1  1  0  0  0
 13 15  1  0  0  0  0
 13 21  1  0  0  0  0
 14 46  1  0  0  0  0
 15 16  1  0  0  0  0
 16 17  1  1  0  0  0
 16 18  1  0  0  0  0
 18  2  1  6  0  0  0
 18 19  1  0  0  0  0
 19 20  1  1  0  0  0
 19 21  1  0  0  0  0
 21 22  1  6  0  0  0
 23 20  1  6  0  0  0
 23 24  1  0  0  0  0
 23 28  1  0  0  0  0
 24 25  1  1  0  0  0
 24 26  1  0  0  0  0
 26 27  1  0  0  0  0
 26 32  1  1  0  0  0
 27 28  1  0  0  0  0
 27 29  1  6  0  0  0
 29 30  1  0  0  0  0
 31 32  1  1  0  0  0
 31 33  1  0  0  0  0
 31 39  1  0  0  0  0
 33 36  1  0  0  0  0
 33 41  1  1  0  0  0
 34 40  1  0  0  0  0
 35 48  1  0  0  0  0
 36 37  1  0  0  0  0
 36 45  1  6  0  0  0
 37 38  1  0  0  0  0
 37 44  1  1  0  0  0
 38 39  1  0  0  0  0
 38 40  1  1  0  0  0
 43 47  1  0  0  0  0
 46 48  1  0  0  0  0
 48 43  1  1  0  0  0
M  END
>  <CHROM.1>
-164.02589730,-111.35063976,-173.53287676,57.68322944,165.72490771,171.38063896
-76.43847651,45.02204133,-126.81770728,-62.19995107,-173.29165525,50.68693754
-77.38164199,25.03958105,16.27002808,11.10465071,2.16219254,-1.15433085,0.12115739

>  <Name>
ligand

>  <RI>
0

>  <Rbt.Current_Directory>
/home/itssahil/PROJECTS/Mol_Feturizer/New_Systems/rnas/4PDQ

>  <Rbt.Executable>
rbdock ($Id: //depot/dev/client3/rdock/2013.1/src/exe/rbdock.cxx#4 $)

>  <Rbt.Library>
libRbt.so (2013.1, Build901 2013/11/27)

>  <Rbt.Parameter_File>
/export/apps/rDock/src/rDock_2013.1_src/data/scripts/dock_solv.prm

>  <Rbt.Receptor>
prm/blind_docking_40.prm

>  <SCORE>
12.5279

>  <SCORE.INTER>
2.75724

>  <SCORE.INTER.CONST>
1

>  <SCORE.INTER.POLAR>
0

>  <SCORE.INTER.ROT>
13

>  <SCORE.INTER.SOLV>
27.2801

>  <SCORE.INTER.VDW>
-19.5219

>  <SCORE.INTER.norm>
0.0562702

>  <SCORE.INTRA>
6.18417

>  <SCORE.INTRA.DIHEDRAL>
-13.3299

>  <SCORE.INTRA.DIHEDRAL.0>
34.5115

>  <SCORE.INTRA.POLAR>
0

>  <SCORE.INTRA.POLAR.0>
0

>  <SCORE.INTRA.REPUL>
0

>  <SCORE.INTRA.REPUL.0>
0

>  <SCORE.INTRA.SOLV>
7.39688

>  <SCORE.INTRA.SOLV.lig_0>
-122.812

>  <SCORE.INTRA.VDW>
9.15068

>  <SCORE.INTRA.VDW.0>
-7.46208

>  <SCORE.INTRA.norm>
0.126208

>  <SCORE.RESTR>
3.58649

>  <SCORE.RESTR.CAVITY>
3.58649

>  <SCORE.RESTR.norm>
0.0731936

>  <SCORE.SYSTEM>
0

>  <SCORE.SYSTEM.CONST>
0

>  <SCORE.SYSTEM.DIHEDRAL>
0

>  <SCORE.SYSTEM.SOLV>
0

>  <SCORE.SYSTEM.norm>
0

>  <SCORE.heavy>
49

>  <SCORE.norm>
0.255671

>  <RMSD>
12.277

$$$$
ligand
 OpenBabel11021811513D
libRbt.so/2013.1/901 2013/11/27
 49 52  0  0  0  0  0  0  0  0999 V2000
   26.2421   13.4256   13.0655 C   0  0  2  0  0  0  0  0  0  0  0  0
   27.1900   14.3227   12.5666 O   0  0  0  0  0  0  0  0  0  0  0  0
   26.9195   12.4653   14.1125 C   0  0  2  0  0  0  0  0  0  0  0  0
   27.5091   13.2957   15.2418 N   0  0  0  0  0  0  0  0  0  0  0  0
   25.8976   18.8355    8.8222 O   0  0  0  0  0  0  0  0  0  0  0  0
   28.0001   11.5970   13.4268 C   0  0  2  0  0  0  0  0  0  0  0  0
   27.4229   22.8546   11.6434 N   0  0  0  0  0  0  0  0  0  0  0  0
   27.3848   10.7831   12.2777 C   0  0  2  0  0  0  0  0  0  0  0  0
   26.6894   11.7191   11.2006 C   0  0  2  0  0  0  0  0  0  0  0  0
   25.6695   12.5944   11.9314 O   0  0  0  0  0  0  0  0  0  0  0  0
   26.0207   10.8857   10.0694 C   0  0  0  0  0  0  0  0  0  0  0  0
   25.5472    9.6173   10.4949 N   0  0  0  0  0  0  0  0  0  0  0  0
   25.3908   18.1492   11.6055 C   0  0  2  0  0  0  0  0  0  0  0  0
   25.2564   19.5344   11.0669 N   0  0  0  0  0  0  0  0  0  0  0  0
   26.7951   18.0809   12.3800 C   0  0  0  0  0  0  0  0  0  0  0  0
   27.0081   16.6518   13.0050 C   0  0  2  0  0  0  0  0  0  0  0  0
   28.3010   16.5704   13.7004 N   0  0  0  0  0  0  0  0  0  0  0  0
   26.9858   15.5771   11.8998 C   0  0  2  0  0  0  0  0  0  0  0  0
   25.6142   15.6202   11.1127 C   0  0  2  0  0  0  0  0  0  0  0  0
   25.6897   14.5574   10.0908 O   0  0  0  0  0  0  0  0  0  0  0  0
   25.4513   17.0716   10.4284 C   0  0  1  0  0  0  0  0  0  0  0  0
   24.2435   17.0867    9.7349 O   0  0  0  0  0  0  0  0  0  0  0  0
   24.9047   14.3944    9.0809 C   0  0  1  0  0  0  0  0  0  0  0  0
   25.3413   13.3076    8.0547 C   0  0  2  0  0  0  0  0  0  0  0  0
   26.1231   13.9223    7.0796 O   0  0  0  0  0  0  0  0  0  0  0  0
   24.0106   12.9478    7.5372 C   0  0  1  0  0  0  0  0  0  0  0  0
   23.0082   12.9472    8.7324 C   0  0  2  0  0  0  0  0  0  0  0  0
   23.5207   14.0595    9.4243 O   0  0  0  0  0  0  0  0  0  0  0  0
   22.8187   11.6479    9.5165 C   0  0  0  0  0  0  0  0  0  0  0  0
   21.9361   11.9520   10.5801 O   0  0  0  0  0  0  0  0  0  0  0  0
   23.2578   15.2004    6.9189 C   0  0  2  0  0  0  0  0  0  0  0  0
   23.6704   13.9700    6.4953 O   0  0  0  0  0  0  0  0  0  0  0  0
   21.8619   15.1693    7.4681 C   0  0  1  0  0  0  0  0  0  0  0  0
   23.4907   20.1015    5.4074 N   0  0  0  0  0  0  0  0  0  0  0  0
   24.0806   21.4401    8.5588 O   0  0  0  0  0  0  0  0  0  0  0  0
   21.4328   16.6282    7.8895 C   0  0  2  0  0  0  0  0  0  0  0  0
   21.5225   17.6723    6.7231 C   0  0  1  0  0  0  0  0  0  0  0  0
   22.8754   17.6912    6.2182 C   0  0  1  0  0  0  0  0  0  0  0  0
   23.3129   16.2984    5.8059 O   0  0  0  0  0  0  0  0  0  0  0  0
   23.0029   18.7081    5.0006 C   0  0  0  0  0  0  0  0  0  0  0  0
   20.9643   14.7180    6.4797 N   0  0  0  0  0  0  0  0  0  0  0  0
   28.4476   10.8814   14.1975 O   0  0  0  0  0  0  0  0  0  0  0  0
   25.4358   21.9905   10.2968 C   0  0  0  0  0  0  0  0  0  0  0  0
   20.8167   17.3366    5.8824 O   0  0  0  0  0  0  0  0  0  0  0  0
   22.1508   16.9889    8.7126 O   0  0  0  0  0  0  0  0  0  0  0  0
   25.5565   19.7288    9.6105 C   0  0  0  0  0  0  0  0  0  0  0  0
   26.7653   22.2555   10.5382 C   0  0  0  0  0  0  0  0  0  0  0  0
   25.3545   21.2725    9.1773 C   0  0  1  0  0  0  0  0  0  0  0  0
   26.4140    9.8999   12.7825 F   0  0  0  0  0  0  0  0  0  0  0  0
  1  2  1  6  0  0  0
  1 10  1  0  0  0  0
  1  3  1  0  0  0  0
  3  4  1  1  0  0  0
  3  6  1  0  0  0  0
  5 46  2  0  0  0  0
  6 42  1  1  0  0  0
  6  8  1  0  0  0  0
  7 47  1  0  0  0  0
  8  9  1  0  0  0  0
  8 49  1  1  0  0  0
  9 10  1  0  0  0  0
  9 11  1  6  0  0  0
 11 12  1  0  0  0  0
 13 14  1  6  0  0  0
 13 15  1  0  0  0  0
 13 21  1  0  0  0  0
 14 46  1  0  0  0  0
 15 16  1  0  0  0  0
 16 17  1  6  0  0  0
 16 18  1  0  0  0  0
 18  2  1  1  0  0  0
 18 19  1  0  0  0  0
 19 20  1  6  0  0  0
 19 21  1  0  0  0  0
 21 22  1  1  0  0  0
 23 20  1  1  0  0  0
 23 24  1  0  0  0  0
 23 28  1  0  0  0  0
 24 25  1  6  0  0  0
 24 26  1  0  0  0  0
 26 27  1  0  0  0  0
 26 32  1  6  0  0  0
 27 28  1  0  0  0  0
 27 29  1  1  0  0  0
 29 30  1  0  0  0  0
 31 32  1  6  0  0  0
 31 33  1  0  0  0  0
 31 39  1  0  0  0  0
 33 36  1  0  0  0  0
 33 41  1  6  0  0  0
 34 40  1  0  0  0  0
 35 48  1  0  0  0  0
 36 37  1  0  0  0  0
 36 45  1  1  0  0  0
 37 38  1  0  0  0  0
 37 44  1  6  0  0  0
 38 39  1  0  0  0  0
 38 40  1  6  0  0  0
 43 47  1  0  0  0  0
 46 48  1  0  0  0  0
 48 43  1  1  0  0  0
M  END
>  <CHROM.1>
-161.00199612,92.19198864,30.70104848,101.26785536,-166.48577695,171.64559206
-77.15675709,176.28010382,-73.45140795,95.07742419,-172.77496448,-155.05554244
80.20857585,24.95486975,15.55292067,9.87259915,-1.06791508,-0.90364164,-0.13160842

>  <Name>
ligand

>  <RI>
0

>  <Rbt.Current_Directory>
/home/itssahil/PROJECTS/Mol_Feturizer/New_Systems/rnas/4PDQ

>  <Rbt.Executable>
rbdock ($Id: //depot/dev/client3/rdock/2013.1/src/exe/rbdock.cxx#4 $)

>  <Rbt.Library>
libRbt.so (2013.1, Build901 2013/11/27)

>  <Rbt.Parameter_File>
/export/apps/rDock/src/rDock_2013.1_src/data/scripts/dock_solv.prm

>  <Rbt.Receptor>
prm/blind_docking_40.prm

>  <SCORE>
16.0923

>  <SCORE.INTER>
2.41062

>  <SCORE.INTER.CONST>
1

>  <SCORE.INTER.POLAR>
0

>  <SCORE.INTER.ROT>
13

>  <SCORE.INTER.SOLV>
32.2825

>  <SCORE.INTER.VDW>
-21.4204

>  <SCORE.INTER.norm>
0.0491962

>  <SCORE.INTRA>
10.8535

>  <SCORE.INTRA.DIHEDRAL>
-14.4537

>  <SCORE.INTRA.DIHEDRAL.0>
34.5115

>  <SCORE.INTRA.POLAR>
0

>  <SCORE.INTRA.POLAR.0>
0

>  <SCORE.INTRA.REPUL>
1

>  <SCORE.INTRA.REPUL.0>
0

>  <SCORE.INTRA.SOLV>
3.9501

>  <SCORE.INTRA.SOLV.lig_0>
-122.812

>  <SCORE.INTRA.VDW>
11.1053

>  <SCORE.INTRA.VDW.0>
-7.46208

>  <SCORE.INTRA.norm>
0.221499

>  <SCORE.RESTR>
2.82817

>  <SCORE.RESTR.CAVITY>
2.82817

>  <SCORE.RESTR.norm>
0.0577177

>  <SCORE.SYSTEM>
0

>  <SCORE.SYSTEM.CONST>
0

>  <SCORE.SYSTEM.DIHEDRAL>
0

>  <SCORE.SYSTEM.SOLV>
0

>  <SCORE.SYSTEM.norm>
0

>  <SCORE.heavy>
49

>  <SCORE.norm>
0.328413

>  <RMSD>
12.299

$$$$
ligand
 OpenBabel11021811513D
libRbt.so/2013.1/901 2013/11/27
 49 52  0  0  0  0  0  0  0  0999 V2000
   25.7338   12.9946   12.6874 C   0  0  2  0  0  0  0  0  0  0  0  0
   26.6528   13.9995   12.9999 O   0  0  0  0  0  0  0  0  0  0  0  0
   25.8879   11.8003   13.7008 C   0  0  2  0  0  0  0  0  0  0  0  0
   25.6536   12.3119   15.1135 N   0  0  0  0  0  0  0  0  0  0  0  0
   24.2306   19.7942   10.5621 O   0  0  0  0  0  0  0  0  0  0  0  0
   27.2846   11.1513   13.5601 C   0  0  2  0  0  0  0  0  0  0  0  0
   23.8073   22.6105    8.2859 N   0  0  0  0  0  0  0  0  0  0  0  0
   27.5056   10.6604   12.1207 C   0  0  2  0  0  0  0  0  0  0  0  0
   27.3561   11.8390   11.0679 C   0  0  2  0  0  0  0  0  0  0  0  0
   25.9850   12.4836   11.2801 O   0  0  0  0  0  0  0  0  0  0  0  0
   27.5260   11.3242    9.6093 C   0  0  0  0  0  0  0  0  0  0  0  0
   27.5109   12.3535    8.6325 N   0  0  0  0  0  0  0  0  0  0  0  0
   26.1142   18.2107   12.1175 C   0  0  2  0  0  0  0  0  0  0  0  0
   26.4170   19.5836   11.6171 N   0  0  0  0  0  0  0  0  0  0  0  0
   27.4117   17.7052   12.9159 C   0  0  0  0  0  0  0  0  0  0  0  0
   27.1683   16.2648   13.5027 C   0  0  2  0  0  0  0  0  0  0  0  0
   28.3578   15.7821   14.2196 N   0  0  0  0  0  0  0  0  0  0  0  0
   26.8533   15.2716   12.3664 C   0  0  2  0  0  0  0  0  0  0  0  0
   25.5796   15.7435   11.5552 C   0  0  2  0  0  0  0  0  0  0  0  0
   25.3592   14.7304   10.5044 O   0  0  0  0  0  0  0  0  0  0  0  0
   25.8791   17.1914   10.9107 C   0  0  1  0  0  0  0  0  0  0  0  0
   24.7508   17.5852   10.1955 O   0  0  0  0  0  0  0  0  0  0  0  0
   24.5101   14.7887    9.5356 C   0  0  1  0  0  0  0  0  0  0  0  0
   24.2601   13.4530    8.7754 C   0  0  2  0  0  0  0  0  0  0  0  0
   25.1535   13.3883    7.7088 O   0  0  0  0  0  0  0  0  0  0  0  0
   22.8855   13.7154    8.3177 C   0  0  1  0  0  0  0  0  0  0  0  0
   22.1240   14.4514    9.4631 C   0  0  2  0  0  0  0  0  0  0  0  0
   23.1780   15.2675    9.9122 O   0  0  0  0  0  0  0  0  0  0  0  0
   21.3879   13.6048   10.5024 C   0  0  0  0  0  0  0  0  0  0  0  0
   22.1445   12.4187   10.6551 O   0  0  0  0  0  0  0  0  0  0  0  0
   23.5275   15.7988    7.1904 C   0  0  2  0  0  0  0  0  0  0  0  0
   23.0036   14.5436    7.0741 O   0  0  0  0  0  0  0  0  0  0  0  0
   22.6373   16.8405    6.5793 C   0  0  1  0  0  0  0  0  0  0  0  0
   27.2539   16.1879    4.9876 N   0  0  0  0  0  0  0  0  0  0  0  0
   26.9946   22.1209   11.0761 O   0  0  0  0  0  0  0  0  0  0  0  0
   23.3256   18.2550    6.7034 C   0  0  2  0  0  0  0  0  0  0  0  0
   24.7494   18.3218    6.0497 C   0  0  1  0  0  0  0  0  0  0  0  0
   25.5894   17.3182    6.6601 C   0  0  1  0  0  0  0  0  0  0  0  0
   24.9490   15.9471    6.5544 O   0  0  0  0  0  0  0  0  0  0  0  0
   27.0353   17.3203    5.9950 C   0  0  0  0  0  0  0  0  0  0  0  0
   22.4438   16.5673    5.2102 N   0  0  0  0  0  0  0  0  0  0  0  0
   27.3569   10.2632   14.2759 O   0  0  0  0  0  0  0  0  0  0  0  0
   26.0518   21.6754    9.0580 C   0  0  0  0  0  0  0  0  0  0  0  0
   24.6446   18.0884    4.9308 O   0  0  0  0  0  0  0  0  0  0  0  0
   23.4633   18.4895    7.8211 O   0  0  0  0  0  0  0  0  0  0  0  0
   25.3441   20.2699   10.8255 C   0  0  0  0  0  0  0  0  0  0  0  0
   24.8392   21.6443    8.4064 C   0  0  0  0  0  0  0  0  0  0  0  0
   25.8153   21.7462   10.3673 C   0  0  1  0  0  0  0  0  0  0  0  0
   26.5623    9.6672   11.8031 F   0  0  0  0  0  0  0  0  0  0  0  0
  1  2  1  1  0  0  0
  1 10  1  0  0  0  0
  1  3  1  0  0  0  0
  3  4  1  1  0  0  0
  3  6  1  0  0  0  0
  5 46  2  0  0  0  0
  6 42  1  1  0  0  0
  6  8  1  0  0  0  0
  7 47  1  0  0  0  0
  8  9  1  0  0  0  0
  8 49  1  6  0  0  0
  9 10  1  0  0  0  0
  9 11  1  6  0  0  0
 11 12  1  0  0  0  0
 13 14  1  6  0  0  0
 13 15  1  0  0  0  0
 13 21  1  0  0  0  0
 14 46  1  0  0  0  0
 15 16  1  0  0  0  0
 16 17  1  6  0  0  0
 16 18  1  0  0  0  0
 18  2  1  1  0  0  0
 18 19  1  0  0  0  0
 19 20  1  6  0  0  0
 19 21  1  0  0  0  0
 21 22  1  1  0  0  0
 23 20  1  1  0  0  0
 23 24  1  0  0  0  0
 23 28  1  0  0  0  0
 24 25  1  6  0  0  0
 24 26  1  0  0  0  0
 26 27  1  0  0  0  0
 26 32  1  6  0  0  0
 27 28  1  0  0  0  0
 27 29  1  1  0  0  0
 29 30  1  0  0  0  0
 31 32  1  6  0  0  0
 31 33  1  0  0  0  0
 31 39  1  0  0  0  0
 33 36  1  0  0  0  0
 33 41  1  6  0  0  0
 34 40  1  0  0  0  0
 35 48  1  0  0  0  0
 36 37  1  0  0  0  0
 36 45  1  1  0  0  0
 37 38  1  0  0  0  0
 37 44  1  6  0  0  0
 38 39  1  0  0  0  0
 38 40  1  6  0  0  0
 43 47  1  0  0  0  0
 46 48  1  0  0  0  0
 48 43  1  6  0  0  0
M  END
>  <CHROM.1>
-178.73571460,142.20021904,-175.11434330,179.71993160,-172.54336246,-166.33974318
-65.38393549,32.98678638,-127.53500538,-101.94347423,66.06051791,-165.22360264
166.35255661,25.30376486,15.73889973,9.91210353,-1.14460229,-1.12839932,-0.13100273

>  <Name>
ligand

>  <RI>
0

>  <Rbt.Current_Directory>
/home/itssahil/PROJECTS/Mol_Feturizer/New_Systems/rnas/4PDQ

>  <Rbt.Executable>
rbdock ($Id: //depot/dev/client3/rdock/2013.1/src/exe/rbdock.cxx#4 $)

>  <Rbt.Library>
libRbt.so (2013.1, Build901 2013/11/27)

>  <Rbt.Parameter_File>
/export/apps/rDock/src/rDock_2013.1_src/data/scripts/dock_solv.prm

>  <Rbt.Receptor>
prm/blind_docking_40.prm

>  <SCORE>
9.32884

>  <SCORE.INTER>
2.3275

>  <SCORE.INTER.CONST>
1

>  <SCORE.INTER.POLAR>
0

>  <SCORE.INTER.ROT>
13

>  <SCORE.INTER.SOLV>
37.2078

>  <SCORE.INTER.VDW>
-23.1176

>  <SCORE.INTER.norm>
0.0475001

>  <SCORE.INTRA>
6.48854

>  <SCORE.INTRA.DIHEDRAL>
-11.6039

>  <SCORE.INTRA.DIHEDRAL.0>
34.5115

>  <SCORE.INTRA.POLAR>
0

>  <SCORE.INTRA.POLAR.0>
0

>  <SCORE.INTRA.REPUL>
0.948996

>  <SCORE.INTRA.REPUL.0>
0

>  <SCORE.INTRA.SOLV>
3.68754

>  <SCORE.INTRA.SOLV.lig_0>
-122.812

>  <SCORE.INTRA.VDW>
5.70174

>  <SCORE.INTRA.VDW.0>
-7.46208

>  <SCORE.INTRA.norm>
0.132419

>  <SCORE.RESTR>
0.512799

>  <SCORE.RESTR.CAVITY>
0.512799

>  <SCORE.RESTR.norm>
0.0104653

>  <SCORE.SYSTEM>
0

>  <SCORE.SYSTEM.CONST>
0

>  <SCORE.SYSTEM.DIHEDRAL>
0

>  <SCORE.SYSTEM.SOLV>
0

>  <SCORE.SYSTEM.norm>
0

>  <SCORE.heavy>
49

>  <SCORE.norm>
0.190384

>  <RMSD>
12.358

$$$$
ligand
 OpenBabel11021811513D
libRbt.so/2013.1/901 2013/11/27
 49 52  0  0  0  0  0  0  0  0999 V2000
   27.5220    9.5397   14.7655 C   0  0  2  0  0  0  0  0  0  0  0  0
   26.6914    9.5152   13.6423 O   0  0  0  0  0  0  0  0  0  0  0  0
   27.5135    8.1288   15.4629 C   0  0  2  0  0  0  0  0  0  0  0  0
   27.9932    7.0799   14.4718 N   0  0  0  0  0  0  0  0  0  0  0  0
   23.1092   12.1659    8.3955 O   0  0  0  0  0  0  0  0  0  0  0  0
   26.0988    7.7986   15.9934 C   0  0  2  0  0  0  0  0  0  0  0  0
   21.8442   16.4706    8.6480 N   0  0  0  0  0  0  0  0  0  0  0  0
   25.6282    8.8818   16.9767 C   0  0  2  0  0  0  0  0  0  0  0  0
   25.6253   10.3216   16.3084 C   0  0  2  0  0  0  0  0  0  0  0  0
   27.0267   10.5814   15.7526 O   0  0  0  0  0  0  0  0  0  0  0  0
   25.2013   11.4203   17.3257 C   0  0  0  0  0  0  0  0  0  0  0  0
   23.9645   11.1583   17.9704 N   0  0  0  0  0  0  0  0  0  0  0  0
   25.2097   11.9881   10.4032 C   0  0  2  0  0  0  0  0  0  0  0  0
   25.2036   13.0077    9.3135 N   0  0  0  0  0  0  0  0  0  0  0  0
   25.9467   12.6534   11.6644 C   0  0  0  0  0  0  0  0  0  0  0  0
   25.9759   11.6485   12.8758 C   0  0  2  0  0  0  0  0  0  0  0  0
   26.6668   12.2392   14.0315 N   0  0  0  0  0  0  0  0  0  0  0  0
   26.7169   10.3558   12.4794 C   0  0  2  0  0  0  0  0  0  0  0  0
   26.0172    9.6759   11.2340 C   0  0  2  0  0  0  0  0  0  0  0  0
   26.7909    8.4533   10.9409 O   0  0  0  0  0  0  0  0  0  0  0  0
   26.0588   10.7005    9.9890 C   0  0  1  0  0  0  0  0  0  0  0  0
   25.4461   10.0814    8.9023 O   0  0  0  0  0  0  0  0  0  0  0  0
   26.4894    7.5279   10.0951 C   0  0  1  0  0  0  0  0  0  0  0  0
   27.4715    6.3210   10.0358 C   0  0  2  0  0  0  0  0  0  0  0  0
   28.4372    6.5958    9.0706 O   0  0  0  0  0  0  0  0  0  0  0  0
   26.5246    5.2901    9.5791 C   0  0  1  0  0  0  0  0  0  0  0  0
   25.1633    5.5252   10.3038 C   0  0  2  0  0  0  0  0  0  0  0  0
   25.1644    6.9316   10.2808 O   0  0  0  0  0  0  0  0  0  0  0  0
   24.9324    4.8364   11.6496 C   0  0  0  0  0  0  0  0  0  0  0  0
   24.9666    3.4450   11.3936 O   0  0  0  0  0  0  0  0  0  0  0  0
   26.1244    4.3255    7.3581 C   0  0  2  0  0  0  0  0  0  0  0  0
   26.4225    5.4378    8.0911 O   0  0  0  0  0  0  0  0  0  0  0  0
   26.0360    4.6240    5.8904 C   0  0  1  0  0  0  0  0  0  0  0  0
   21.8298    2.6594    7.3463 N   0  0  0  0  0  0  0  0  0  0  0  0
   24.5374   13.5727    5.9835 O   0  0  0  0  0  0  0  0  0  0  0  0
   25.6395    3.3097    5.1122 C   0  0  2  0  0  0  0  0  0  0  0  0
   24.2975    2.6664    5.6060 C   0  0  1  0  0  0  0  0  0  0  0  0
   24.4103    2.3796    7.0169 C   0  0  1  0  0  0  0  0  0  0  0  0
   24.7916    3.6286    7.7887 O   0  0  0  0  0  0  0  0  0  0  0  0
   23.0516    1.7641    7.5720 C   0  0  0  0  0  0  0  0  0  0  0  0
   25.0377    5.5902    5.6535 N   0  0  0  0  0  0  0  0  0  0  0  0
   26.1278    6.7900   16.5301 O   0  0  0  0  0  0  0  0  0  0  0  0
   22.9888   14.7263    7.1797 C   0  0  0  0  0  0  0  0  0  0  0  0
   23.4524    3.4269    5.4477 O   0  0  0  0  0  0  0  0  0  0  0  0
   26.4650    2.5278    5.2859 O   0  0  0  0  0  0  0  0  0  0  0  0
   24.0530   12.9678    8.3526 C   0  0  0  0  0  0  0  0  0  0  0  0
   22.8920   15.6094    8.2317 C   0  0  0  0  0  0  0  0  0  0  0  0
   24.1818   14.1366    7.2440 C   0  0  1  0  0  0  0  0  0  0  0  0
   26.4823    8.9189   18.0932 F   0  0  0  0  0  0  0  0  0  0  0  0
  1  2  1  6  0  0  0
  1 10  1  0  0  0  0
  1  3  1  0  0  0  0
  3  4  1  6  0  0  0
  3  6  1  0  0  0  0
  5 46  2  0  0  0  0
  6 42  1  1  0  0  0
  6  8  1  0  0  0  0
  7 47  1  0  0  0  0
  8  9  1  0  0  0  0
  8 49  1  1  0  0  0
  9 10  1  0  0  0  0
  9 11  1  1  0  0  0
 11 12  1  0  0  0  0
 13 14  1  6  0  0  0
 13 15  1  0  0  0  0
 13 21  1  0  0  0  0
 14 46  1  0  0  0  0
 15 16  1  0  0  0  0
 16 17  1  1  0  0  0
 16 18  1  0  0  0  0
 18  2  1  1  0  0  0
 18 19  1  0  0  0  0
 19 20  1  6  0  0  0
 19 21  1  0  0  0  0
 21 22  1  6  0  0  0
 23 20  1  1  0  0  0
 23 24  1  0  0  0  0
 23 28  1  0  0  0  0
 24 25  1  6  0  0  0
 24 26  1  0  0  0  0
 26 27  1  0  0  0  0
 26 32  1  6  0  0  0
 27 28  1  0  0  0  0
 27 29  1  1  0  0  0
 29 30  1  0  0  0  0
 31 32  1  1  0  0  0
 31 33  1  0  0  0  0
 31 39  1  0  0  0  0
 33 36  1  0  0  0  0
 33 41  1  1  0  0  0
 34 40  1  0  0  0  0
 35 48  1  0  0  0  0
 36 37  1  0  0  0  0
 36 45  1  1  0  0  0
 37 38  1  0  0  0  0
 37 44  1  1  0  0  0
 38 39  1  0  0  0  0
 38 40  1  1  0  0  0
 43 47  1  0  0  0  0
 46 48  1  0  0  0  0
 48 43  1  6  0  0  0
M  END
>  <CHROM.1>
-156.79650710,-81.63753608,-53.62358320,-149.46526829,172.23051935,-177.76695285
151.52705860,-62.87795057,179.20987891,-57.21005937,-178.81266014,-160.24899323
-73.43846030,25.43972986,8.32371920,10.63185599,-1.31801489,1.31811995,-2.61933794

>  <Name>
ligand

>  <RI>
0

>  <Rbt.Current_Directory>
/home/itssahil/PROJECTS/Mol_Feturizer/New_Systems/rnas/4PDQ

>  <Rbt.Executable>
rbdock ($Id: //depot/dev/client3/rdock/2013.1/src/exe/rbdock.cxx#4 $)

>  <Rbt.Library>
libRbt.so (2013.1, Build901 2013/11/27)

>  <Rbt.Parameter_File>
/export/apps/rDock/src/rDock_2013.1_src/data/scripts/dock_solv.prm

>  <Rbt.Receptor>
prm/pocket_docking_8.prm

>  <SCORE>
-3.31166

>  <SCORE.INTER>
4.1328

>  <SCORE.INTER.CONST>
1

>  <SCORE.INTER.POLAR>
0

>  <SCORE.INTER.ROT>
13

>  <SCORE.INTER.SOLV>
14.719

>  <SCORE.INTER.VDW>
-14.4178

>  <SCORE.INTER.norm>
0.0843429

>  <SCORE.INTRA>
-7.44446

>  <SCORE.INTRA.DIHEDRAL>
-22.033

>  <SCORE.INTRA.DIHEDRAL.0>
34.5115

>  <SCORE.INTRA.POLAR>
0

>  <SCORE.INTRA.POLAR.0>
0

>  <SCORE.INTRA.REPUL>
0

>  <SCORE.INTRA.REPUL.0>
0

>  <SCORE.INTRA.SOLV>
0.547777

>  <SCORE.INTRA.SOLV.lig_0>
-122.812

>  <SCORE.INTRA.VDW>
3.29812

>  <SCORE.INTRA.VDW.0>
-7.46208

>  <SCORE.INTRA.norm>
-0.151928

>  <SCORE.RESTR>
0

>  <SCORE.RESTR.CAVITY>
0

>  <SCORE.RESTR.norm>
0

>  <SCORE.SYSTEM>
0

>  <SCORE.SYSTEM.CONST>
0

>  <SCORE.SYSTEM.DIHEDRAL>
0

>  <SCORE.SYSTEM.SOLV>
0

>  <SCORE.SYSTEM.norm>
0

>  <SCORE.heavy>
49

>  <SCORE.norm>
-0.0675849

>  <RMSD>
12.429

$$$$
ligand
 OpenBabel11021811513D
libRbt.so/2013.1/901 2013/11/27
 49 52  0  0  0  0  0  0  0  0999 V2000
   26.7187   14.3535   11.4234 C   0  0  2  0  0  0  0  0  0  0  0  0
   25.4908   15.0199   11.4065 O   0  0  0  0  0  0  0  0  0  0  0  0
   26.4785   12.7980   11.4234 C   0  0  2  0  0  0  0  0  0  0  0  0
   25.6852   12.4161   10.1836 N   0  0  0  0  0  0  0  0  0  0  0  0
   25.2610   20.0825    8.7319 O   0  0  0  0  0  0  0  0  0  0  0  0
   25.7478   12.3658   12.7162 C   0  0  2  0  0  0  0  0  0  0  0  0
   25.3362   23.9963   11.3419 N   0  0  0  0  0  0  0  0  0  0  0  0
   26.5582   12.7797   13.9545 C   0  0  2  0  0  0  0  0  0  0  0  0
   26.8225   14.3446   13.9883 C   0  0  2  0  0  0  0  0  0  0  0  0
   27.4961   14.7331   12.6709 O   0  0  0  0  0  0  0  0  0  0  0  0
   27.6905   14.7487   15.2150 C   0  0  0  0  0  0  0  0  0  0  0  0
   27.7676   16.1500   15.4262 N   0  0  0  0  0  0  0  0  0  0  0  0
   23.5516   18.8396   10.7339 C   0  0  2  0  0  0  0  0  0  0  0  0
   23.2975   20.1979   10.1705 N   0  0  0  0  0  0  0  0  0  0  0  0
   25.1098   18.7728   11.1134 C   0  0  0  0  0  0  0  0  0  0  0  0
   25.4620   17.3730   11.7417 C   0  0  2  0  0  0  0  0  0  0  0  0
   26.8917   17.2920   12.0753 N   0  0  0  0  0  0  0  0  0  0  0  0
   25.1339   16.2429   10.7457 C   0  0  2  0  0  0  0  0  0  0  0  0
   23.6034   16.2830   10.3469 C   0  0  2  0  0  0  0  0  0  0  0  0
   23.3918   15.1665    9.4045 O   0  0  0  0  0  0  0  0  0  0  0  0
   23.2841   17.7005    9.6469 C   0  0  1  0  0  0  0  0  0  0  0  0
   21.9362   17.7130    9.2967 O   0  0  0  0  0  0  0  0  0  0  0  0
   23.9532   15.0038    8.2551 C   0  0  1  0  0  0  0  0  0  0  0  0
   23.2371   15.6844    7.0515 C   0  0  2  0  0  0  0  0  0  0  0  0
   22.3400   14.7684    6.5073 O   0  0  0  0  0  0  0  0  0  0  0  0
   24.4089   15.8799    6.1815 C   0  0  1  0  0  0  0  0  0  0  0  0
   25.6166   16.2926    7.0784 C   0  0  2  0  0  0  0  0  0  0  0  0
   25.3431   15.4597    8.1784 O   0  0  0  0  0  0  0  0  0  0  0  0
   25.8391   17.7808    7.3516 C   0  0  0  0  0  0  0  0  0  0  0  0
   26.0764   18.3835    6.0934 O   0  0  0  0  0  0  0  0  0  0  0  0
   25.9111   14.2494    5.1289 C   0  0  2  0  0  0  0  0  0  0  0  0
   24.6315   14.5789    5.4716 O   0  0  0  0  0  0  0  0  0  0  0  0
   25.9848   12.9230    4.4315 C   0  0  1  0  0  0  0  0  0  0  0  0
   29.1027   15.1688    8.1570 N   0  0  0  0  0  0  0  0  0  0  0  0
   22.6486   22.0984    7.8726 O   0  0  0  0  0  0  0  0  0  0  0  0
   27.4921   12.5830    4.1117 C   0  0  2  0  0  0  0  0  0  0  0  0
   28.4169   12.5704    5.3779 C   0  0  1  0  0  0  0  0  0  0  0  0
   28.3369   13.8587    6.0256 C   0  0  1  0  0  0  0  0  0  0  0  0
   26.8959   14.2098    6.3438 O   0  0  0  0  0  0  0  0  0  0  0  0
   29.2283   13.8772    7.3440 C   0  0  0  0  0  0  0  0  0  0  0  0
   25.4760   11.9090    5.2678 N   0  0  0  0  0  0  0  0  0  0  0  0
   25.6218   11.2298   12.7112 O   0  0  0  0  0  0  0  0  0  0  0  0
   23.6888   22.9250    9.7150 C   0  0  0  0  0  0  0  0  0  0  0  0
   28.0299   11.7666    6.1002 O   0  0  0  0  0  0  0  0  0  0  0  0
   27.9020   13.3977    3.4105 O   0  0  0  0  0  0  0  0  0  0  0  0
   24.2722   20.7025    9.1487 C   0  0  0  0  0  0  0  0  0  0  0  0
   24.9340   23.2651   10.1945 C   0  0  0  0  0  0  0  0  0  0  0  0
   23.8563   22.1743    8.6270 C   0  0  1  0  0  0  0  0  0  0  0  0
   27.8028   12.1253   13.9532 F   0  0  0  0  0  0  0  0  0  0  0  0
  1  2  1  1  0  0  0
  1 10  1  0  0  0  0
  1  3  1  0  0  0  0
  3  4  1  6  0  0  0
  3  6  1  0  0  0  0
  5 46  2  0  0  0  0
  6 42  1  6  0  0  0
  6  8  1  0  0  0  0
  7 47  1  0  0  0  0
  8  9  1  0  0  0  0
  8 49  1  6  0  0  0
  9 10  1  0  0  0  0
  9 11  1  1  0  0  0
 11 12  1  0  0  0  0
 13 14  1  6  0  0  0
 13 15  1  0  0  0  0
 13 21  1  0  0  0  0
 14 46  1  0  0  0  0
 15 16  1  0  0  0  0
 16 17  1  6  0  0  0
 16 18  1  0  0  0  0
 18  2  1  1  0  0  0
 18 19  1  0  0  0  0
 19 20  1  6  0  0  0
 19 21  1  0  0  0  0
 21 22  1  1  0  0  0
 23 20  1  1  0  0  0
 23 24  1  0  0  0  0
 23 28  1  0  0  0  0
 24 25  1  6  0  0  0
 24 26  1  0  0  0  0
 26 27  1  0  0  0  0
 26 32  1  1  0  0  0
 27 28  1  0  0  0  0
 27 29  1  1  0  0  0
 29 30  1  0  0  0  0
 31 32  1  1  0  0  0
 31 33  1  0  0  0  0
 31 39  1  0  0  0  0
 33 36  1  0  0  0  0
 33 41  1  1  0  0  0
 34 40  1  0  0  0  0
 35 48  1  0  0  0  0
 36 37  1  0  0  0  0
 36 45  1  6  0  0  0
 37 38  1  0  0  0  0
 37 44  1  1  0  0  0
 38 39  1  0  0  0  0
 38 40  1  1  0  0  0
 43 47  1  0  0  0  0
 46 48  1  0  0  0  0
 48 43  1  1  0  0  0
M  END
>  <CHROM.1>
-144.05439194,-88.60993972,-169.75900569,46.37150642,-61.26844902,-87.42687567
-149.42804356,-61.70185531,179.78335545,-174.96258395,-177.12883667,-163.73001892
111.18276605,25.63376951,15.97081673,9.18056700,-0.46301286,-1.21219827,1.35574315

>  <Name>
ligand

>  <RI>
0

>  <Rbt.Current_Directory>
/home/itssahil/PROJECTS/Mol_Feturizer/New_Systems/rnas/4PDQ

>  <Rbt.Executable>
rbdock ($Id: //depot/dev/client3/rdock/2013.1/src/exe/rbdock.cxx#4 $)

>  <Rbt.Library>
libRbt.so (2013.1, Build901 2013/11/27)

>  <Rbt.Parameter_File>
/export/apps/rDock/src/rDock_2013.1_src/data/scripts/dock_solv.prm

>  <Rbt.Receptor>
prm/blind_docking_40.prm

>  <SCORE>
3.50771

>  <SCORE.INTER>
1.9199

>  <SCORE.INTER.CONST>
1

>  <SCORE.INTER.POLAR>
0

>  <SCORE.INTER.ROT>
13

>  <SCORE.INTER.SOLV>
27.4973

>  <SCORE.INTER.VDW>
-20.1525

>  <SCORE.INTER.norm>
0.0391817

>  <SCORE.INTRA>
-1.85157

>  <SCORE.INTRA.DIHEDRAL>
-17.1713

>  <SCORE.INTRA.DIHEDRAL.0>
34.5115

>  <SCORE.INTRA.POLAR>
0

>  <SCORE.INTRA.POLAR.0>
0

>  <SCORE.INTRA.REPUL>
0

>  <SCORE.INTRA.REPUL.0>
0

>  <SCORE.INTRA.SOLV>
3.21231

>  <SCORE.INTRA.SOLV.lig_0>
-122.812

>  <SCORE.INTRA.VDW>
5.12793

>  <SCORE.INTRA.VDW.0>
-7.46208

>  <SCORE.INTRA.norm>
-0.0377871

>  <SCORE.RESTR>
3.43938

>  <SCORE.RESTR.CAVITY>
3.43938

>  <SCORE.RESTR.norm>
0.0701913

>  <SCORE.SYSTEM>
0

>  <SCORE.SYSTEM.CONST>
0

>  <SCORE.SYSTEM.DIHEDRAL>
0

>  <SCORE.SYSTEM.SOLV>
0

>  <SCORE.SYSTEM.norm>
0

>  <SCORE.heavy>
49

>  <SCORE.norm>
0.0715859

>  <RMSD>
12.440

$$$$
ligand
 OpenBabel11021811513D
libRbt.so/2013.1/901 2013/11/27
 49 52  0  0  0  0  0  0  0  0999 V2000
   26.6678   12.4518   14.1025 C   0  0  2  0  0  0  0  0  0  0  0  0
   27.4075   13.3013   13.2760 O   0  0  0  0  0  0  0  0  0  0  0  0
   27.6399   11.6487   15.0444 C   0  0  2  0  0  0  0  0  0  0  0  0
   28.4477   12.6295   15.8798 N   0  0  0  0  0  0  0  0  0  0  0  0
   22.7112   18.2631   12.3344 O   0  0  0  0  0  0  0  0  0  0  0  0
   28.5597   10.7272   14.2097 C   0  0  2  0  0  0  0  0  0  0  0  0
   21.0667   17.5795   10.3952 N   0  0  0  0  0  0  0  0  0  0  0  0
   27.7211    9.7595   13.3600 C   0  0  2  0  0  0  0  0  0  0  0  0
   26.7254   10.5343   12.3967 C   0  0  2  0  0  0  0  0  0  0  0  0
   25.8753   11.4699   13.2583 O   0  0  0  0  0  0  0  0  0  0  0  0
   25.8409    9.5481   11.5801 C   0  0  0  0  0  0  0  0  0  0  0  0
   26.5732    8.5097   10.9482 N   0  0  0  0  0  0  0  0  0  0  0  0
   25.0422   16.6113   11.7752 C   0  0  2  0  0  0  0  0  0  0  0  0
   24.6548   17.7882   10.9434 N   0  0  0  0  0  0  0  0  0  0  0  0
   26.5648   16.8383   12.2296 C   0  0  0  0  0  0  0  0  0  0  0  0
   27.0499   15.6472   13.1375 C   0  0  2  0  0  0  0  0  0  0  0  0
   28.4505   15.8336   13.5440 N   0  0  0  0  0  0  0  0  0  0  0  0
   26.9430   14.3138   12.3710 C   0  0  2  0  0  0  0  0  0  0  0  0
   25.4526   14.0610   11.9042 C   0  0  2  0  0  0  0  0  0  0  0  0
   25.4554   12.7675   11.1928 O   0  0  0  0  0  0  0  0  0  0  0  0
   25.0029   15.2604   10.9241 C   0  0  1  0  0  0  0  0  0  0  0  0
   23.6932   15.0159   10.5185 O   0  0  0  0  0  0  0  0  0  0  0  0
   25.2424   12.5722    9.9361 C   0  0  1  0  0  0  0  0  0  0  0  0
   26.0333   11.3957    9.2919 C   0  0  2  0  0  0  0  0  0  0  0  0
   27.2321   11.9010    8.7946 O   0  0  0  0  0  0  0  0  0  0  0  0
   25.0918   11.0658    8.2090 C   0  0  1  0  0  0  0  0  0  0  0  0
   23.6417   11.1986    8.7683 C   0  0  2  0  0  0  0  0  0  0  0  0
   23.8425   12.3305    9.5789 O   0  0  0  0  0  0  0  0  0  0  0  0
   22.9994    9.9687    9.4114 C   0  0  0  0  0  0  0  0  0  0  0  0
   23.1058    8.9242    8.4625 O   0  0  0  0  0  0  0  0  0  0  0  0
   24.6584   13.1894    7.0575 C   0  0  2  0  0  0  0  0  0  0  0  0
   25.3739   12.0274    7.0945 O   0  0  0  0  0  0  0  0  0  0  0  0
   24.1848   13.5164    5.6719 C   0  0  1  0  0  0  0  0  0  0  0  0
   26.5153   17.5796    7.1629 N   0  0  0  0  0  0  0  0  0  0  0  0
   23.5587   19.4603    9.0468 O   0  0  0  0  0  0  0  0  0  0  0  0
   23.4123   14.8922    5.6941 C   0  0  2  0  0  0  0  0  0  0  0  0
   24.2620   16.0821    6.2606 C   0  0  1  0  0  0  0  0  0  0  0  0
   24.6975   15.7485    7.5965 C   0  0  1  0  0  0  0  0  0  0  0  0
   25.4437   14.4278    7.6025 O   0  0  0  0  0  0  0  0  0  0  0  0
   25.6025   16.9125    8.1957 C   0  0  0  0  0  0  0  0  0  0  0  0
   25.2870   13.6480    4.8034 N   0  0  0  0  0  0  0  0  0  0  0  0
   29.2264   10.1261   14.9172 O   0  0  0  0  0  0  0  0  0  0  0  0
   21.8320   20.0131   10.4153 C   0  0  0  0  0  0  0  0  0  0  0  0
   25.1849   16.2178    5.5917 O   0  0  0  0  0  0  0  0  0  0  0  0
   22.4993   14.7792    6.3847 O   0  0  0  0  0  0  0  0  0  0  0  0
   23.4236   18.5372   11.3582 C   0  0  0  0  0  0  0  0  0  0  0  0
   21.1905   18.9059    9.9070 C   0  0  0  0  0  0  0  0  0  0  0  0
   23.1443   19.7862   10.3717 C   0  0  1  0  0  0  0  0  0  0  0  0
   26.9600    8.9239   14.1965 F   0  0  0  0  0  0  0  0  0  0  0  0
  1  2  1  6  0  0  0
  1 10  1  0  0  0  0
  1  3  1  0  0  0  0
  3  4  1  6  0  0  0
  3  6  1  0  0  0  0
  5 46  2  0  0  0  0
  6 42  1  1  0  0  0
  6  8  1  0  0  0  0
  7 47  1  0  0  0  0
  8  9  1  0  0  0  0
  8 49  1  1  0  0  0
  9 10  1  0  0  0  0
  9 11  1  1  0  0  0
 11 12  1  0  0  0  0
 13 14  1  6  0  0  0
 13 15  1  0  0  0  0
 13 21  1  0  0  0  0
 14 46  1  0  0  0  0
 15 16  1  0  0  0  0
 16 17  1  6  0  0  0
 16 18  1  0  0  0  0
 18  2  1  1  0  0  0
 18 19  1  0  0  0  0
 19 20  1  6  0  0  0
 19 21  1  0  0  0  0
 21 22  1  1  0  0  0
 23 20  1  1  0  0  0
 23 24  1  0  0  0  0
 23 28  1  0  0  0  0
 24 25  1  6  0  0  0
 24 26  1  0  0  0  0
 26 27  1  0  0  0  0
 26 32  1  6  0  0  0
 27 28  1  0  0  0  0
 27 29  1  1  0  0  0
 29 30  1  0  0  0  0
 31 32  1  6  0  0  0
 31 33  1  0  0  0  0
 31 39  1  0  0  0  0
 33 36  1  0  0  0  0
 33 41  1  6  0  0  0
 34 40  1  0  0  0  0
 35 48  1  0  0  0  0
 36 37  1  0  0  0  0
 36 45  1  1  0  0  0
 37 38  1  0  0  0  0
 37 44  1  6  0  0  0
 38 39  1  0  0  0  0
 38 40  1  6  0  0  0
 43 47  1  0  0  0  0
 46 48  1  0  0  0  0
 48 43  1  6  0  0  0
M  END
>  <CHROM.1>
-172.59083580,97.36074009,-49.01245357,-125.69192980,-112.92632210,146.68763087
-92.17211483,-53.29986281,-136.20982808,-36.76699004,67.79815077,55.63644199
-147.42599400,25.24907354,13.92389202,10.35266517,-0.31209402,-1.12853017
0.60808793

>  <Name>
ligand

>  <RI>
0

>  <Rbt.Current_Directory>
/home/itssahil/PROJECTS/Mol_Feturizer/New_Systems/rnas/4PDQ

>  <Rbt.Executable>
rbdock ($Id: //depot/dev/client3/rdock/2013.1/src/exe/rbdock.cxx#4 $)

>  <Rbt.Library>
libRbt.so (2013.1, Build901 2013/11/27)

>  <Rbt.Parameter_File>
/export/apps/rDock/src/rDock_2013.1_src/data/scripts/dock_solv.prm

>  <Rbt.Receptor>
prm/blind_docking_80.prm

>  <SCORE>
23.2575

>  <SCORE.INTER>
6.63888

>  <SCORE.INTER.CONST>
1

>  <SCORE.INTER.POLAR>
0

>  <SCORE.INTER.ROT>
13

>  <SCORE.INTER.SOLV>
32.5318

>  <SCORE.INTER.VDW>
-18.6847

>  <SCORE.INTER.norm>
0.135487

>  <SCORE.INTRA>
10.8503

>  <SCORE.INTRA.DIHEDRAL>
-2.89458

>  <SCORE.INTRA.DIHEDRAL.0>
34.5115

>  <SCORE.INTRA.POLAR>
0

>  <SCORE.INTRA.POLAR.0>
0

>  <SCORE.INTRA.REPUL>
0.0287409

>  <SCORE.INTRA.REPUL.0>
0

>  <SCORE.INTRA.SOLV>
7.8402

>  <SCORE.INTRA.SOLV.lig_0>
-122.812

>  <SCORE.INTRA.VDW>
8.23384

>  <SCORE.INTRA.VDW.0>
-7.46208

>  <SCORE.INTRA.norm>
0.221436

>  <SCORE.RESTR>
5.76829

>  <SCORE.RESTR.CAVITY>
5.76829

>  <SCORE.RESTR.norm>
0.11772

>  <SCORE.SYSTEM>
0

>  <SCORE.SYSTEM.CONST>
0

>  <SCORE.SYSTEM.DIHEDRAL>
0

>  <SCORE.SYSTEM.SOLV>
0

>  <SCORE.SYSTEM.norm>
0

>  <SCORE.heavy>
49

>  <SCORE.norm>
0.474643

>  <RMSD>
12.449

$$$$
ligand
 OpenBabel11021811513D
libRbt.so/2013.1/901 2013/11/27
 49 52  0  0  0  0  0  0  0  0999 V2000
   26.4419   16.2978   13.3634 C   0  0  2  0  0  0  0  0  0  0  0  0
   26.7656   15.0663   13.9384 O   0  0  0  0  0  0  0  0  0  0  0  0
   27.6979   16.8808   12.6151 C   0  0  2  0  0  0  0  0  0  0  0  0
   28.1416   15.8962   11.5445 N   0  0  0  0  0  0  0  0  0  0  0  0
   25.4280    9.4886   13.7142 O   0  0  0  0  0  0  0  0  0  0  0  0
   28.8364   17.1725   13.6203 C   0  0  2  0  0  0  0  0  0  0  0  0
   27.7195    5.7175   10.9442 N   0  0  0  0  0  0  0  0  0  0  0  0
   28.3584   18.1532   14.7026 C   0  0  2  0  0  0  0  0  0  0  0  0
   27.0895   17.5994   15.4790 C   0  0  2  0  0  0  0  0  0  0  0  0
   26.0122   17.2755   14.4423 O   0  0  0  0  0  0  0  0  0  0  0  0
   26.5776   18.6215   16.5349 C   0  0  0  0  0  0  0  0  0  0  0  0
   27.6030   19.1626   17.3534 N   0  0  0  0  0  0  0  0  0  0  0  0
   27.0940   11.1845   12.0341 C   0  0  2  0  0  0  0  0  0  0  0  0
   26.8245    9.7477   11.7341 N   0  0  0  0  0  0  0  0  0  0  0  0
   27.1952   11.3199   13.6303 C   0  0  0  0  0  0  0  0  0  0  0  0
   27.5044   12.8092   14.0361 C   0  0  2  0  0  0  0  0  0  0  0  0
   27.5795   12.9502   15.4978 N   0  0  0  0  0  0  0  0  0  0  0  0
   26.3948   13.7454   13.5172 C   0  0  2  0  0  0  0  0  0  0  0  0
   26.2657   13.6329   11.9444 C   0  0  2  0  0  0  0  0  0  0  0  0
   25.1915   14.5654   11.5495 O   0  0  0  0  0  0  0  0  0  0  0  0
   25.8846   12.1136   11.5600 C   0  0  1  0  0  0  0  0  0  0  0  0
   25.7680   12.0372   10.1743 O   0  0  0  0  0  0  0  0  0  0  0  0
   24.8511   14.8942   10.3500 C   0  0  1  0  0  0  0  0  0  0  0  0
   23.4432   14.4124    9.8916 C   0  0  2  0  0  0  0  0  0  0  0  0
   23.5884   13.1679    9.2833 O   0  0  0  0  0  0  0  0  0  0  0  0
   23.1602   15.4692    8.9061 C   0  0  1  0  0  0  0  0  0  0  0  0
   23.6942   16.8200    9.4750 C   0  0  2  0  0  0  0  0  0  0  0  0
   24.8683   16.3334   10.0775 O   0  0  0  0  0  0  0  0  0  0  0  0
   22.7525   17.6656   10.3335 C   0  0  0  0  0  0  0  0  0  0  0  0
   21.7915   18.2102    9.4489 O   0  0  0  0  0  0  0  0  0  0  0  0
   25.1402   15.4610    7.4560 C   0  0  2  0  0  0  0  0  0  0  0  0
   23.8477   15.0615    7.6383 O   0  0  0  0  0  0  0  0  0  0  0  0
   25.4907   15.5924    6.0031 C   0  0  1  0  0  0  0  0  0  0  0  0
   28.6659   12.4986    8.0238 N   0  0  0  0  0  0  0  0  0  0  0  0
   24.4496    7.0151   12.6286 O   0  0  0  0  0  0  0  0  0  0  0  0
   27.0074   16.0057    5.8660 C   0  0  2  0  0  0  0  0  0  0  0  0
   27.9968   15.0094    6.5640 C   0  0  1  0  0  0  0  0  0  0  0  0
   27.6461   14.9072    7.9612 C   0  0  1  0  0  0  0  0  0  0  0  0
   26.1905   14.5109    8.1205 O   0  0  0  0  0  0  0  0  0  0  0  0
   28.5993   13.8700    8.7018 C   0  0  0  0  0  0  0  0  0  0  0  0
   25.3139   14.3560    5.3501 N   0  0  0  0  0  0  0  0  0  0  0  0
   29.7201   17.6320   13.0597 O   0  0  0  0  0  0  0  0  0  0  0  0
   25.8600    7.4637   10.9054 C   0  0  0  0  0  0  0  0  0  0  0  0
   27.8767   13.9782    6.0743 O   0  0  0  0  0  0  0  0  0  0  0  0
   27.1484   17.0258    6.3787 O   0  0  0  0  0  0  0  0  0  0  0  0
   25.9486    9.0054   12.6987 C   0  0  0  0  0  0  0  0  0  0  0  0
   26.4873    6.2935   10.5407 C   0  0  0  0  0  0  0  0  0  0  0  0
   25.7409    7.4721   12.2325 C   0  0  1  0  0  0  0  0  0  0  0  0
   28.0103   19.3824   14.1151 F   0  0  0  0  0  0  0  0  0  0  0  0
  1  2  1  1  0  0  0
  1 10  1  0  0  0  0
  1  3  1  0  0  0  0
  3  4  1  6  0  0  0
  3  6  1  0  0  0  0
  5 46  2  0  0  0  0
  6 42  1  6  0  0  0
  6  8  1  0  0  0  0
  7 47  1  0  0  0  0
  8  9  1  0  0  0  0
  8 49  1  6  0  0  0
  9 10  1  0  0  0  0
  9 11  1  1  0  0  0
 11 12  1  0  0  0  0
 13 14  1  1  0  0  0
 13 15  1  0  0  0  0
 13 21  1  0  0  0  0
 14 46  1  0  0  0  0
 15 16  1  0  0  0  0
 16 17  1  1  0  0  0
 16 18  1  0  0  0  0
 18  2  1  6  0  0  0
 18 19  1  0  0  0  0
 19 20  1  1  0  0  0
 19 21  1  0  0  0  0
 21 22  1  6  0  0  0
 23 20  1  1  0  0  0
 23 24  1  0  0  0  0
 23 28  1  0  0  0  0
 24 25  1  6  0  0  0
 24 26  1  0  0  0  0
 26 27  1  0  0  0  0
 26 32  1  6  0  0  0
 27 28  1  0  0  0  0
 27 29  1  1  0  0  0
 29 30  1  0  0  0  0
 31 32  1  6  0  0  0
 31 33  1  0  0  0  0
 31 39  1  0  0  0  0
 33 36  1  0  0  0  0
 33 41  1  6  0  0  0
 34 40  1  0  0  0  0
 35 48  1  0  0  0  0
 36 37  1  0  0  0  0
 36 45  1  1  0  0  0
 37 38  1  0  0  0  0
 37 44  1  6  0  0  0
 38 39  1  0  0  0  0
 38 40  1  6  0  0  0
 43 47  1  0  0  0  0
 46 48  1  0  0  0  0
 48 43  1  6  0  0  0
M  END
>  <CHROM.1>
-105.46449924,153.44181415,-47.40358437,35.56794794,172.19023986,112.91604062
-88.99254922,-72.13580603,-152.52342942,-52.86731438,-54.78153818,-96.69840591
31.10756545,26.26550344,14.14517275,11.06017038,-1.29250739,1.36333896,3.06899328

>  <Name>
ligand

>  <RI>
0

>  <Rbt.Current_Directory>
/home/itssahil/PROJECTS/Mol_Feturizer/New_Systems/rnas/4PDQ

>  <Rbt.Executable>
rbdock ($Id: //depot/dev/client3/rdock/2013.1/src/exe/rbdock.cxx#4 $)

>  <Rbt.Library>
libRbt.so (2013.1, Build901 2013/11/27)

>  <Rbt.Parameter_File>
/export/apps/rDock/src/rDock_2013.1_src/data/scripts/dock_solv.prm

>  <Rbt.Receptor>
prm/blind_docking_60.prm

>  <SCORE>
20.571

>  <SCORE.INTER>
6.07209

>  <SCORE.INTER.CONST>
1

>  <SCORE.INTER.POLAR>
0

>  <SCORE.INTER.ROT>
13

>  <SCORE.INTER.SOLV>
27.4982

>  <SCORE.INTER.VDW>
-17.3847

>  <SCORE.INTER.norm>
0.12392

>  <SCORE.INTRA>
8.90489

>  <SCORE.INTRA.DIHEDRAL>
-4.62324

>  <SCORE.INTRA.DIHEDRAL.0>
34.5115

>  <SCORE.INTRA.POLAR>
0

>  <SCORE.INTRA.POLAR.0>
0

>  <SCORE.INTRA.REPUL>
0.175621

>  <SCORE.INTRA.REPUL.0>
0

>  <SCORE.INTRA.SOLV>
4.83454

>  <SCORE.INTRA.SOLV.lig_0>
-122.812

>  <SCORE.INTRA.VDW>
7.92113

>  <SCORE.INTRA.VDW.0>
-7.46208

>  <SCORE.INTRA.norm>
0.181732

>  <SCORE.RESTR>
5.59406

>  <SCORE.RESTR.CAVITY>
5.59406

>  <SCORE.RESTR.norm>
0.114165

>  <SCORE.SYSTEM>
0

>  <SCORE.SYSTEM.CONST>
0

>  <SCORE.SYSTEM.DIHEDRAL>
0

>  <SCORE.SYSTEM.SOLV>
0

>  <SCORE.SYSTEM.norm>
0

>  <SCORE.heavy>
49

>  <SCORE.norm>
0.419817

>  <RMSD>
12.536

$$$$
ligand
 OpenBabel11021811513D
libRbt.so/2013.1/901 2013/11/27
 49 52  0  0  0  0  0  0  0  0999 V2000
   26.5916   12.7565   12.2380 C   0  0  2  0  0  0  0  0  0  0  0  0
   27.0181   13.9659   12.7924 O   0  0  0  0  0  0  0  0  0  0  0  0
   25.2164   12.3351   12.8771 C   0  0  2  0  0  0  0  0  0  0  0  0
   24.1909   13.4277   12.6183 N   0  0  0  0  0  0  0  0  0  0  0  0
   24.0678   19.4744   10.2946 O   0  0  0  0  0  0  0  0  0  0  0  0
   25.3856   12.0671   14.3908 C   0  0  2  0  0  0  0  0  0  0  0  0
   23.3624   22.5092    8.2697 N   0  0  0  0  0  0  0  0  0  0  0  0
   26.4401   10.9747   14.6277 C   0  0  2  0  0  0  0  0  0  0  0  0
   27.8426   11.3640   13.9944 C   0  0  2  0  0  0  0  0  0  0  0  0
   27.6170   11.6713   12.5129 O   0  0  0  0  0  0  0  0  0  0  0  0
   28.8898   10.2295   14.1897 C   0  0  0  0  0  0  0  0  0  0  0  0
   28.4652    8.9668   13.7005 N   0  0  0  0  0  0  0  0  0  0  0  0
   26.0379   18.1034   11.9420 C   0  0  2  0  0  0  0  0  0  0  0  0
   26.2014   19.5101   11.4712 N   0  0  0  0  0  0  0  0  0  0  0  0
   27.3531   17.7346   12.7850 C   0  0  0  0  0  0  0  0  0  0  0  0
   27.2530   16.2662   13.3436 C   0  0  2  0  0  0  0  0  0  0  0  0
   28.4615   15.9092   14.1011 N   0  0  0  0  0  0  0  0  0  0  0  0
   27.0965   15.2631   12.1833 C   0  0  2  0  0  0  0  0  0  0  0  0
   25.8093   15.6015   11.3281 C   0  0  2  0  0  0  0  0  0  0  0  0
   25.7458   14.5879   10.2567 O   0  0  0  0  0  0  0  0  0  0  0  0
   25.9664   17.0847   10.7141 C   0  0  1  0  0  0  0  0  0  0  0  0
   24.8288   17.3602    9.9596 O   0  0  0  0  0  0  0  0  0  0  0  0
   24.9090   14.5457    9.2765 C   0  0  1  0  0  0  0  0  0  0  0  0
   25.1982   13.4710    8.1875 C   0  0  2  0  0  0  0  0  0  0  0  0
   25.9954   14.0537    7.2053 O   0  0  0  0  0  0  0  0  0  0  0  0
   23.8195   13.2617    7.7147 C   0  0  1  0  0  0  0  0  0  0  0  0
   22.8703   13.3003    8.9520 C   0  0  2  0  0  0  0  0  0  0  0  0
   23.5141   14.3266    9.6665 O   0  0  0  0  0  0  0  0  0  0  0  0
   22.5889   11.9898    9.6886 C   0  0  0  0  0  0  0  0  0  0  0  0
   21.8449   12.3353   10.8417 O   0  0  0  0  0  0  0  0  0  0  0  0
   23.5225   15.6420    7.1960 C   0  0  2  0  0  0  0  0  0  0  0  0
   23.5371   14.3581    6.7327 O   0  0  0  0  0  0  0  0  0  0  0  0
   22.3598   16.4228    6.6579 C   0  0  1  0  0  0  0  0  0  0  0  0
   26.7012   18.3139    5.5490 N   0  0  0  0  0  0  0  0  0  0  0  0
   26.5490   22.0806   10.9294 O   0  0  0  0  0  0  0  0  0  0  0  0
   22.4339   17.9061    7.1913 C   0  0  2  0  0  0  0  0  0  0  0  0
   23.7753   18.6365    6.8362 C   0  0  1  0  0  0  0  0  0  0  0  0
   24.8773   17.8724    7.3722 C   0  0  1  0  0  0  0  0  0  0  0  0
   24.8288   16.4404    6.8741 O   0  0  0  0  0  0  0  0  0  0  0  0
   26.2650   18.5554    6.9969 C   0  0  0  0  0  0  0  0  0  0  0  0
   22.4143   16.4614    5.2501 N   0  0  0  0  0  0  0  0  0  0  0  0
   24.3846   11.7241   14.8229 O   0  0  0  0  0  0  0  0  0  0  0  0
   25.6590   21.5927    8.8973 C   0  0  0  0  0  0  0  0  0  0  0  0
   23.8727   18.6778    5.6933 O   0  0  0  0  0  0  0  0  0  0  0  0
   22.3663   17.8776    8.3393 O   0  0  0  0  0  0  0  0  0  0  0  0
   25.0998   20.0755   10.6254 C   0  0  0  0  0  0  0  0  0  0  0  0
   24.7802   22.4631    8.2923 C   0  0  0  0  0  0  0  0  0  0  0  0
   25.4155   21.6042   10.2072 C   0  0  1  0  0  0  0  0  0  0  0  0
   26.0171    9.7664   14.0460 F   0  0  0  0  0  0  0  0  0  0  0  0
  1  2  1  1  0  0  0
  1 10  1  0  0  0  0
  1  3  1  0  0  0  0
  3  4  1  1  0  0  0
  3  6  1  0  0  0  0
  5 46  2  0  0  0  0
  6 42  1  6  0  0  0
  6  8  1  0  0  0  0
  7 47  1  0  0  0  0
  8  9  1  0  0  0  0
  8 49  1  6  0  0  0
  9 10  1  0  0  0  0
  9 11  1  6  0  0  0
 11 12  1  0  0  0  0
 13 14  1  6  0  0  0
 13 15  1  0  0  0  0
 13 21  1  0  0  0  0
 14 46  1  0  0  0  0
 15 16  1  0  0  0  0
 16 17  1  6  0  0  0
 16 18  1  0  0  0  0
 18  2  1  1  0  0  0
 18 19  1  0  0  0  0
 19 20  1  6  0  0  0
 19 21  1  0  0  0  0
 21 22  1  6  0  0  0
 23 20  1  1  0  0  0
 23 24  1  0  0  0  0
 23 28  1  0  0  0  0
 24 25  1  6  0  0  0
 24 26  1  0  0  0  0
 26 27  1  0  0  0  0
 26 32  1  6  0  0  0
 27 28  1  0  0  0  0
 27 29  1  1  0  0  0
 29 30  1  0  0  0  0
 31 32  1  6  0  0  0
 31 33  1  0  0  0  0
 31 39  1  0  0  0  0
 33 36  1  0  0  0  0
 33 41  1  6  0  0  0
 34 40  1  0  0  0  0
 35 48  1  0  0  0  0
 36 37  1  0  0  0  0
 36 45  1  1  0  0  0
 37 38  1  0  0  0  0
 37 44  1  6  0  0  0
 38 39  1  0  0  0  0
 38 40  1  6  0  0  0
 43 47  1  0  0  0  0
 46 48  1  0  0  0  0
 48 43  1  6  0  0  0
M  END
>  <CHROM.1>
-109.95931832,164.71410381,54.63338909,178.63564861,-174.65000593,171.95653464
-64.50341277,173.14839265,-135.66604017,-77.07060607,-58.25632664,-117.36787630
169.71468642,25.20185564,15.68877394,10.22164651,-1.17992064,-1.01216568
-0.26169528

>  <Name>
ligand

>  <RI>
0

>  <Rbt.Current_Directory>
/home/itssahil/PROJECTS/Mol_Feturizer/New_Systems/rnas/4PDQ

>  <Rbt.Executable>
rbdock ($Id: //depot/dev/client3/rdock/2013.1/src/exe/rbdock.cxx#4 $)

>  <Rbt.Library>
libRbt.so (2013.1, Build901 2013/11/27)

>  <Rbt.Parameter_File>
/export/apps/rDock/src/rDock_2013.1_src/data/scripts/dock_solv.prm

>  <Rbt.Receptor>
prm/blind_docking_40.prm

>  <SCORE>
3.14777

>  <SCORE.INTER>
-0.649717

>  <SCORE.INTER.CONST>
1

>  <SCORE.INTER.POLAR>
0

>  <SCORE.INTER.ROT>
13

>  <SCORE.INTER.SOLV>
40.8629

>  <SCORE.INTER.VDW>
-26.3208

>  <SCORE.INTER.norm>
-0.0132595

>  <SCORE.INTRA>
3.46862

>  <SCORE.INTRA.DIHEDRAL>
-11.3081

>  <SCORE.INTRA.DIHEDRAL.0>
34.5115

>  <SCORE.INTRA.POLAR>
0

>  <SCORE.INTRA.POLAR.0>
0

>  <SCORE.INTRA.REPUL>
0.217482

>  <SCORE.INTRA.REPUL.0>
0

>  <SCORE.INTRA.SOLV>
7.73328

>  <SCORE.INTRA.SOLV.lig_0>
-122.812

>  <SCORE.INTRA.VDW>
4.16863

>  <SCORE.INTRA.VDW.0>
-7.46208

>  <SCORE.INTRA.norm>
0.0707881

>  <SCORE.RESTR>
0.328868

>  <SCORE.RESTR.CAVITY>
0.328868

>  <SCORE.RESTR.norm>
0.00671158

>  <SCORE.SYSTEM>
0

>  <SCORE.SYSTEM.CONST>
0

>  <SCORE.SYSTEM.DIHEDRAL>
0

>  <SCORE.SYSTEM.SOLV>
0

>  <SCORE.SYSTEM.norm>
0

>  <SCORE.heavy>
49

>  <SCORE.norm>
0.0642402

>  <RMSD>
12.730

$$$$
