@<TRIPOS>MOLECULE
4PDQ_rdock.pdb
 530 590 0 0 0
SMALL
GASTEIGER

@<TRIPOS>ATOM
      1  C5'       38.7390    3.4890   -6.2330 C.3     1  U1          0.2141
      2  O5'       39.3160    4.6210   -5.5540 O.3     1  U1         -0.2176
      3  C4'       38.7500    2.1880   -5.4590 C.3     1  U1          0.1802
      4  O4'       40.1180    1.7900   -5.1540 O.3     1  U1         -0.3306
      5  C3'       38.0730    2.2300   -4.1050 C.3     1  U1          0.1861
      6  O3'       36.6830    2.0390   -4.2260 O.3     1  U1         -0.3112
      7  C2'       38.7320    1.0630   -3.3890 C.3     1  U1          0.2309
      8  O2'       38.2460   -0.1890   -3.8240 O.3     1  U1         -0.2156
      9  C1'       40.1820    1.2480   -3.8330 C.3     1  U1          0.2420
     10  N1        40.9530    2.1660   -2.9690 N.ar    1  U1         -0.2534
     11  C2        41.4430    1.6750   -1.7690 C.ar    1  U1          0.3546
     12  O2        41.2610    0.5260   -1.3960 O.2     1  U1         -0.2443
     13  N3        42.1560    2.5800   -1.0220 N.ar    1  U1         -0.1530
     14  C4        42.4300    3.8970   -1.3430 C.ar    1  U1          0.2846
     15  O4        43.0550    4.6040   -0.5460 O.2     1  U1         -0.2650
     16  C5        41.8940    4.3240   -2.5940 C.ar    1  U1          0.0814
     17  C6        41.1870    3.4690   -3.3420 C.ar    1  U1          0.0870
     18  P         35.7040    2.7140   -3.1540 P.3     2  U2          0.2141
     19  C5'       35.8600    0.6740   -1.5000 C.3     2  U2          0.1812
     20  O5'       36.1320    2.0460   -1.7690 O.3     2  U2         -0.3114
     21  C4'       36.2870    0.3130   -0.0930 C.3     2  U2          0.1773
     22  O4'       37.7260    0.4750    0.0260 O.3     2  U2         -0.3307
     23  C3'       35.7240    1.1820    1.0150 C.3     2  U2          0.1860
     24  O3'       34.4390    0.7350    1.4200 O.3     2  U2         -0.3112
     25  C2'       36.7610    1.0130    2.1220 C.3     2  U2          0.2309
     26  O2'       36.6080   -0.1790    2.8560 O.3     2  U2         -0.2156
     27  C1'       38.0570    0.9400    1.3220 C.3     2  U2          0.2420
     28  N1        38.7400    2.2330    1.1910 N.ar    2  U2         -0.2534
     29  C2        39.4760    2.6720    2.2750 C.ar    2  U2          0.3546
     30  O2        39.5760    2.0290    3.3080 O.2     2  U2         -0.2443
     31  N3        40.0910    3.8920    2.1030 N.ar    2  U2         -0.1530
     32  C4        40.0420    4.6940    0.9810 C.ar    2  U2          0.2846
     33  O4        40.6240    5.7780    0.9910 O.2     2  U2         -0.2650
     34  C5        39.2620    4.1630   -0.1010 C.ar    2  U2          0.0814
     35  C6        38.6530    2.9850    0.0380 C.ar    2  U2          0.0870
     36  OP1       34.3270    2.2720   -3.5000 O.2     2  U2         -0.5172
     37  OP2       36.0220    4.1660   -3.1090 O.co2   2  U2         -0.4373
     38  P         33.4170    1.7800    2.0940 P.3     3  G3          0.2141
     39  C5'       33.9130    1.0250    4.5810 C.3     3  G3          0.1812
     40  O5'       33.9870    2.0320    3.5730 O.3     3  G3         -0.3114
     41  C4'       34.6980    1.4380    5.8070 C.3     3  G3          0.1773
     42  O4'       36.0570    1.7180    5.4060 O.3     3  G3         -0.3307
     43  C3'       34.2480    2.7140    6.4940 C.3     3  G3          0.1860
     44  O3'       33.2150    2.4900    7.4410 O.3     3  G3         -0.3112
     45  C2'       35.5140    3.2220    7.1680 C.3     3  G3          0.2309
     46  O2'       35.7250    2.7890    8.4900 O.3     3  G3         -0.2156
     47  C1'       36.6020    2.7370    6.2190 C.3     3  G3          0.2408
     48  N1        39.2260    7.0670    5.9440 N.ar    3  G3         -0.1709
     49  C2        38.9420    6.2820    7.0330 C.ar    3  G3          0.2606
     50  N2        39.4120    6.7140    8.2030 N.pl3   3  G3         -0.0859
     51  N3        38.2430    5.1620    6.9810 N.ar    3  G3         -0.1918
     52  C4        37.8240    4.8920    5.7300 C.ar    3  G3          0.1723
     53  C5        38.0360    5.6150    4.5740 C.ar    3  G3          0.1748
     54  C6        38.8030    6.8150    4.6450 C.ar    3  G3          0.3023
     55  O6        39.1030    7.6030    3.7310 O.2     3  G3         -0.2633
     56  N7        37.4110    5.0060    3.4910 N.ar    3  G3         -0.2173
     57  C8        36.8500    3.9420    3.9980 C.ar    3  G3          0.1817
     58  N9        37.0690    3.8100    5.3500 N.ar    3  G3         -0.2693
     59  OP1       32.0870    1.1130    2.1740 O.3     3  G3         -0.4373
     60  OP2       33.5560    3.0500    1.3320 O.co2   3  G3         -0.5172
     61  P         32.0540    3.5860    7.6040 P.3     4  C4          0.2141
     62  C5'       33.0820    4.2010    9.9280 C.3     4  C4          0.1812
     63  O5'       32.6770    4.6280    8.6350 O.3     4  C4         -0.3114
     64  C4'       33.9840    5.2250   10.5650 C.3     4  C4          0.1773
     65  O4'       35.2090    5.3220    9.8020 O.3     4  C4         -0.3307
     66  C3'       33.4600    6.6440   10.6030 C.3     4  C4          0.1860
     67  O3'       32.5680    6.8380   11.6940 O.3     4  C4         -0.3112
     68  C2'       34.7470    7.4480   10.7530 C.3     4  C4          0.2309
     69  O2'       35.2400    7.5190   12.0670 O.3     4  C4         -0.2156
     70  C1'       35.7180    6.6420    9.8930 C.3     4  C4          0.2420
     71  N1        35.8680    7.1910    8.5330 N.ar    4  C4         -0.2535
     72  C2        36.5890    8.3740    8.3730 C.ar    4  C4          0.3532
     73  O2        37.0820    8.9070    9.3720 O.2     4  C4         -0.2443
     74  N3        36.7250    8.9060    7.1400 N.ar    4  C4         -0.1739
     75  C4        36.1670    8.3060    6.0900 C.ar    4  C4          0.1759
     76  N4        36.3020    8.8880    4.8970 N.pl3   4  C4         -0.1070
     77  C5        35.4370    7.0860    6.2180 C.ar    4  C4          0.0566
     78  C6        35.3130    6.5690    7.4480 C.ar    4  C4          0.0850
     79  OP1       30.8800    2.9250    8.2220 O.3     4  C4         -0.4373
     80  OP2       31.9000    4.2540    6.2840 O.co2   4  C4         -0.5172
     81  P         31.5230    8.0650   11.6580 P.3     5  G5          0.2141
     82  C5'       33.0080    9.7870   12.9360 C.3     5  G5          0.1812
     83  O5'       32.4570    9.3520   11.7100 O.3     5  G5         -0.3114
     84  C4'       33.6540   11.1230   12.7550 C.3     5  G5          0.1773
     85  O4'       34.7700   10.9760   11.8440 O.3     5  G5         -0.3307
     86  C3'       32.8210   12.1760   12.0500 C.3     5  G5          0.1860
     87  O3'       31.8400   12.7900   12.8750 O.3     5  G5         -0.3112
     88  C2'       33.8980   13.1630   11.6400 C.3     5  G5          0.2309
     89  O2'       34.3550   13.9590   12.7230 O.3     5  G5         -0.2156
     90  C1'       34.9780   12.1990   11.1450 C.3     5  G5          0.2408
     91  N1        35.9820   13.8950    6.4670 N.ar    5  G5         -0.1709
     92  C2        36.3490   14.4170    7.6830 C.ar    5  G5          0.2606
     93  N2        37.0500   15.5510    7.6450 N.pl3   5  G5         -0.0859
     94  N3        36.0430   13.8670    8.8500 N.ar    5  G5         -0.1918
     95  C4        35.3240   12.7310    8.7000 C.ar    5  G5          0.1723
     96  C5        34.9020   12.1250    7.5330 C.ar    5  G5          0.1748
     97  C6        35.2330   12.7350    6.2850 C.ar    5  G5          0.3023
     98  O6        34.9290   12.3680    5.1380 O.2     5  G5         -0.2633
     99  N7        34.1830   10.9670    7.8100 N.ar    5  G5         -0.2173
    100  C8        34.1750   10.8990    9.1130 C.ar    5  G5          0.1817
    101  N9        34.8380   11.9440    9.7140 N.ar    5  G5         -0.2693
    102  OP1       30.6990    8.0510   12.8930 O.3     5  G5         -0.4373
    103  OP2       30.8500    8.0310   10.3410 O.co2   5  G5         -0.5172
    104  P         30.4890   13.3460   12.2070 P.3     6  U6          0.2141
    105  C5'       31.4400   15.7780   12.2140 C.3     6  U6          0.1812
    106  O5'       30.9560   14.6780   11.4560 O.3     6  U6         -0.3114
    107  C4'       31.9820   16.8830   11.3250 C.3     6  U6          0.1773
    108  O4'       33.1840   16.5180   10.6060 O.3     6  U6         -0.3307
    109  C3'       31.1770   17.5130   10.2070 C.3     6  U6          0.1860
    110  O3'       30.0660   18.2630   10.6450 O.3     6  U6         -0.3112
    111  C2'       32.2300   18.4590    9.6610 C.3     6  U6          0.2309
    112  O2'       32.4480   19.5500   10.5220 O.3     6  U6         -0.2156
    113  C1'       33.4540   17.5400    9.6480 C.3     6  U6          0.2420
    114  N1        33.5690   16.9260    8.3210 N.ar    6  U6         -0.2534
    115  C2        34.3230   17.6120    7.3920 C.ar    6  U6          0.3546
    116  O2        34.9570   18.6150    7.6670 O.2     6  U6         -0.2443
    117  N3        34.3110   17.0800    6.1170 N.ar    6  U6         -0.1530
    118  C4        33.6310   15.9600    5.7000 C.ar    6  U6          0.2846
    119  O4        33.6970   15.5790    4.5260 O.2     6  U6         -0.2650
    120  C5        32.8670   15.3110    6.7390 C.ar    6  U6          0.0814
    121  C6        32.8590   15.7970    7.9960 C.ar    6  U6          0.0870
    122  OP1       29.6170   13.7140   13.3460 O.3     6  U6         -0.4373
    123  OP2       30.0150   12.3440   11.2130 O.co2   6  U6         -0.5172
    124  P         28.9680   18.7500    9.5720 P.3     7  C7          0.2141
    125  C5'       30.2980   20.6060    8.2990 C.3     7  C7          0.1812
    126  O5'       29.8240   19.2750    8.3380 O.3     7  C7         -0.3114
    127  C4'       30.6010   20.9960    6.8830 C.3     7  C7          0.1773
    128  O4'       31.5120   20.0190    6.3190 O.3     7  C7         -0.3307
    129  C3'       29.4460   20.9710    5.8980 C.3     7  C7          0.1860
    130  O3'       28.6840   22.1670    5.9740 O.3     7  C7         -0.3112
    131  C2'       30.2110   20.9570    4.5880 C.3     7  C7          0.2309
    132  O2'       30.7630   22.2230    4.3020 O.3     7  C7         -0.2156
    133  C1'       31.3260   19.9620    4.9120 C.3     7  C7          0.2420
    134  N1        30.9410   18.5940    4.5330 N.ar    7  C7         -0.2535
    135  C2        30.9030   18.2650    3.1810 C.ar    7  C7          0.3532
    136  O2        31.2520   19.1140    2.3500 O.2     7  C7         -0.2443
    137  N3        30.4920   17.0380    2.8090 N.ar    7  C7         -0.1739
    138  C4        30.1350   16.1520    3.7320 C.ar    7  C7          0.1759
    139  N4        29.7060   14.9620    3.3170 N.pl3   7  C7         -0.1070
    140  C5        30.1950   16.4480    5.1210 C.ar    7  C7          0.0566
    141  C6        30.6010   17.6690    5.4750 C.ar    7  C7          0.0850
    142  OP1       28.3000   19.9310   10.1850 O.3     7  C7         -0.4373
    143  OP2       28.1450   17.5940    9.1040 O.co2   7  C7         -0.5172
    144  P         27.2100   22.2320    5.3200 P.3     8  A8          0.2141
    145  C5'       27.8850   22.8680    2.8450 C.3     8  A8          0.1812
    146  O5'       27.4240   21.8790    3.7730 O.3     8  A8         -0.3114
    147  C4'       27.7150   22.3890    1.4160 C.3     8  A8          0.1773
    148  O4'       28.5860   21.2620    1.1310 O.3     8  A8         -0.3307
    149  C3'       26.3310   21.8990    1.0570 C.3     8  A8          0.1860
    150  O3'       25.5060   22.9940    0.7390 O.3     8  A8         -0.3112
    151  C2'       26.5950   20.9860   -0.1340 C.3     8  A8          0.2309
    152  O2'       26.6310   21.5890   -1.4040 O.3     8  A8         -0.2156
    153  C1'       27.9350   20.3580    0.2520 C.3     8  A8          0.2408
    154  N1        26.3250   15.5130   -0.1330 N.ar    8  A8         -0.2040
    155  C2        26.5460   16.4610   -1.0450 C.ar    8  A8          0.2016
    156  N3        26.9970   17.7010   -0.8770 N.ar    8  A8         -0.2048
    157  C4        27.2470   17.9410    0.4170 C.ar    8  A8          0.1692
    158  C5        27.0760   17.0680    1.4670 C.ar    8  A8          0.1518
    159  C6        26.5750   15.7970    1.1620 C.ar    8  A8          0.1919
    160  N6        26.3200   14.8680    2.0820 N.pl3   8  A8         -0.1054
    161  N7        27.4470   17.6610    2.6610 N.ar    8  A8         -0.2193
    162  C8        27.8120   18.8670    2.3130 C.ar    8  A8          0.1816
    163  N9        27.6950   19.1110    0.9730 N.ar    8  A8         -0.2693
    164  OP1       26.8010   23.6550    5.4110 O.2     8  A8         -0.5172
    165  OP2       26.3380   21.1870    5.9110 O.co2   8  A8         -0.4373
    166  P         24.0030   23.0210    1.2790 P.3     9  C9          0.2141
    167  C5'       23.3970   22.1730   -1.1010 C.3     9  C9          0.1812
    168  O5'       23.2650   22.0140    0.2980 O.3     9  C9         -0.3114
    169  C4'       22.9520   20.9280   -1.8120 C.3     9  C9          0.1773
    170  O4'       23.8780   19.8330   -1.5910 O.3     9  C9         -0.3307
    171  C3'       21.6280   20.3590   -1.3600 C.3     9  C9          0.1860
    172  O3'       20.5570   21.1040   -1.9010 O.3     9  C9         -0.3112
    173  C2'       21.7060   18.9540   -1.9280 C.3     9  C9          0.2309
    174  O2'       21.4790   18.9450   -3.3210 O.3     9  C9         -0.2156
    175  C1'       23.1670   18.6050   -1.6280 C.3     9  C9          0.2420
    176  N1        23.3340   17.9300   -0.3280 N.ar    9  C9         -0.2535
    177  C2        23.2490   16.5390   -0.2860 C.ar    9  C9          0.3532
    178  O2        23.0520   15.9200   -1.3440 O.2     9  C9         -0.2443
    179  N3        23.3850   15.9020    0.9010 N.ar    9  C9         -0.1739
    180  C4        23.5950   16.6030    2.0130 C.ar    9  C9          0.1759
    181  N4        23.7110   15.9250    3.1580 N.pl3   9  C9         -0.1070
    182  C5        23.6930   18.0230    1.9990 C.ar    9  C9          0.0566
    183  C6        23.5610   18.6410    0.8180 C.ar    9  C9          0.0850
    184  OP1       23.4880   24.3890    1.0290 O.2     9  C9         -0.5172
    185  OP2       23.9830   22.4730    2.6560 O.co2   9  C9         -0.4373
    186  P         19.2050   21.2660   -1.0550 P.3    10  G10         0.2141
    187  C5'       18.1730   19.2690   -2.3950 C.3    10  G10         0.1812
    188  O5'       18.5370   19.8220   -1.1380 O.3    10  G10        -0.3114
    189  C4'       17.6360   17.8750   -2.2150 C.3    10  G10         0.1773
    190  O4'       18.7100   16.9690   -1.8560 O.3    10  G10        -0.3307
    191  C3'       16.6350   17.7110   -1.0900 C.3    10  G10         0.1860
    192  O3'       15.3460   18.1190   -1.5050 O.3    10  G10        -0.3112
    193  C2'       16.7090   16.2150   -0.8250 C.3    10  G10         0.2309
    194  O2'       15.9430   15.4280   -1.7120 O.3    10  G10        -0.2156
    195  C1'       18.2050   15.9500   -1.0130 C.3    10  G10         0.2408
    196  N1        19.5150   13.2300    3.0320 N.ar   10  G10        -0.1709
    197  C2        18.6720   12.9210    1.9880 C.ar   10  G10         0.2606
    198  N2        18.0850   11.7250    2.0180 N.pl3  10  G10        -0.0859
    199  N3        18.4120   13.7320    0.9900 N.ar   10  G10        -0.1918
    200  C4        19.0340   14.9170    1.1260 C.ar   10  G10         0.1723
    201  C5        19.8680   15.3460    2.1340 C.ar   10  G10         0.1748
    202  C6        20.1780   14.4390    3.1940 C.ar   10  G10         0.3023
    203  O6        20.9330   14.6040    4.1670 O.2    10  G10        -0.2633
    204  N7        20.2810   16.6560    1.9060 N.ar   10  G10        -0.2173
    205  C8        19.7180   16.9800    0.7740 C.ar   10  G10         0.1817
    206  N9        18.9550   15.9620    0.2430 N.ar   10  G10        -0.2693
    207  OP1       18.3640   22.2210   -1.8120 O.2    10  G10        -0.5172
    208  OP2       19.5500   21.5630    0.3620 O.co2  10  G10        -0.4373
    209  P         14.2310   18.4700   -0.4060 P.3    11  C11         0.2141
    210  C5'       13.0500   16.1360   -0.5610 C.3    11  C11         0.1812
    211  O5'       13.8260   17.0510    0.1990 O.3    11  C11        -0.3114
    212  C4'       12.8220   14.8630    0.2180 C.3    11  C11         0.1773
    213  O4'       14.0800   14.1670    0.4540 O.3    11  C11        -0.3307
    214  C3'       12.2420   15.0160    1.6090 C.3    11  C11         0.1860
    215  O3'       10.8440   15.2100    1.5600 O.3    11  C11        -0.3112
    216  C2'       12.6040   13.6740    2.2260 C.3    11  C11         0.2309
    217  O2'       11.8060   12.6370    1.7010 O.3    11  C11        -0.2156
    218  C1'       14.0330   13.5060    1.7140 C.3    11  C11         0.2420
    219  N1        15.0690   14.0900    2.5950 N.ar   11  C11        -0.2535
    220  C2        15.4920   13.3580    3.7010 C.ar   11  C11         0.3532
    221  O2        14.9640   12.2660    3.9290 O.2    11  C11        -0.2443
    222  N3        16.4620   13.8600    4.5010 N.ar   11  C11        -0.1739
    223  C4        16.9970   15.0500    4.2330 C.ar   11  C11         0.1759
    224  N4        17.9560   15.4940    5.0450 N.pl3  11  C11        -0.1070
    225  C5        16.5740   15.8320    3.1220 C.ar   11  C11         0.0566
    226  C6        15.6140   15.3200    2.3360 C.ar   11  C11         0.0850
    227  OP1       13.0760   19.0070   -1.1640 O.2    11  C11        -0.5172
    228  OP2       14.8490   19.2960    0.6650 O.co2  11  C11        -0.4373
    229  P         10.0890   15.7960    2.8410 P.3    12  C12         0.2141
    230  C5'        9.5260   13.5110    4.0150 C.3    12  C12         0.1812
    231  O5'       10.3190   14.6960    3.9730 O.3    12  C12        -0.3114
    232  C4'        9.9370   12.6380    5.1810 C.3    12  C12         0.1773
    233  O4'       11.3550   12.3350    5.0590 O.3    12  C12        -0.3307
    234  C3'        9.8270   13.2520    6.5680 C.3    12  C12         0.1860
    235  O3'        8.5230   13.1560    7.1060 O.3    12  C12        -0.3112
    236  C2'       10.8120   12.4060    7.3580 C.3    12  C12         0.2309
    237  O2'       10.3290   11.1260    7.6800 O.3    12  C12        -0.2156
    238  C1'       11.9490   12.2860    6.3510 C.3    12  C12         0.2420
    239  N1        12.8810   13.4110    6.4850 N.ar   12  C12        -0.2535
    240  C2        13.7580   13.4100    7.5730 C.ar   12  C12         0.3532
    241  O2        13.7300   12.4460    8.3590 O.2    12  C12        -0.2443
    242  N3        14.6070   14.4530    7.7420 N.ar   12  C12        -0.1739
    243  C4        14.5950   15.4650    6.8750 C.ar   12  C12         0.1759
    244  N4        15.4260   16.4810    7.1010 N.pl3  12  C12        -0.1070
    245  C5        13.7220   15.4810    5.7410 C.ar   12  C12         0.0566
    246  C6        12.8900   14.4410    5.5870 C.ar   12  C12         0.0850
    247  OP1        8.6430   15.8410    2.4960 O.2    12  C12        -0.5172
    248  OP2       10.7820   17.0350    3.2590 O.co2  12  C12        -0.4373
    249  P          7.9540   14.3640    8.0000 P.3    13  G13         0.2141
    250  C5'        8.2760   13.0060   10.2100 C.3    13  G13         0.1813
    251  O5'        8.6170   14.1440    9.4350 O.3    13  G13        -0.3114
    252  C4'        9.2790   12.7890   11.3150 C.3    13  G13         0.1801
    253  O4'       10.6230   12.6680   10.7760 O.3    13  G13        -0.3306
    254  C3'        9.4430   13.8940   12.3340 C.3    13  G13         0.2161
    255  O3'        8.3780   13.9270   13.2620 O.3    13  G13        -0.2175
    256  C2'       10.7570   13.4880   12.9720 C.3    13  G13         0.2337
    257  O2'       10.6550   12.3110   13.7470 O.3    13  G13        -0.2155
    258  C1'       11.5580   13.1720   11.7180 C.3    13  G13         0.2409
    259  N1        15.3460   16.4850   12.1710 N.ar   13  G13        -0.1709
    260  C2        15.0110   15.4160   12.9580 C.ar   13  G13         0.2606
    261  N2        15.7860   15.1950   14.0210 N.pl3  13  G13        -0.0859
    262  N3        13.9860   14.6230   12.7320 N.ar   13  G13        -0.1918
    263  C4        13.2820   15.0030   11.6540 C.ar   13  G13         0.1723
    264  C5        13.5070   16.0640   10.8100 C.ar   13  G13         0.1748
    265  C6        14.6430   16.8990   11.0500 C.ar   13  G13         0.3023
    266  O6        15.0380   17.8790   10.4030 O.2    13  G13        -0.2633
    267  N7        12.5290   16.1210    9.8220 N.ar   13  G13        -0.2173
    268  C8        11.7550   15.1000   10.0750 C.ar   13  G13         0.1817
    269  N9        12.1650   14.3760   11.1680 N.ar   13  G13        -0.2693
    270  OP1        6.4840   14.1510    8.1190 O.3    13  G13        -0.4373
    271  OP2        8.4730   15.6370    7.4200 O.co2  13  G13        -0.5172
    272  P         24.1410   20.8300   14.1780 P.3    35  C35         0.1280
    273  C5'       23.2970   19.3640   16.1830 C.3    35  C35         0.1795
    274  O5'       23.1890   19.7230   14.8150 O.3    35  C35        -0.3259
    275  C4'       22.1780   18.4290   16.5580 C.3    35  C35         0.1772
    276  O4'       20.9060   19.0700   16.2830 O.3    35  C35        -0.3307
    277  C3'       22.0780   17.1570   15.7380 C.3    35  C35         0.1860
    278  O3'       22.9510   16.1660   16.2260 O.3    35  C35        -0.3112
    279  C2'       20.6600   16.7310   16.0240 C.3    35  C35         0.2309
    280  O2'       20.5910   16.1750   17.3110 O.3    35  C35        -0.2156
    281  C1'       19.9380   18.0760   15.9750 C.3    35  C35         0.2420
    282  N1        19.3970   18.3330   14.6330 N.ar   35  C35        -0.2535
    283  C2        18.2390   17.6650   14.2530 C.ar   35  C35         0.3532
    284  O2        17.7080   16.8910   15.0600 O.2    35  C35        -0.2443
    285  N3        17.7330   17.8630   13.0180 N.ar   35  C35        -0.1739
    286  C4        18.3500   18.6780   12.1710 C.ar   35  C35         0.1759
    287  N4        17.8250   18.8180   10.9570 N.pl3  35  C35        -0.1070
    288  C5        19.5360   19.3800   12.5330 C.ar   35  C35         0.0566
    289  C6        20.0160   19.1850   13.7680 C.ar   35  C35         0.0850
    290  OP1       25.5170   20.5910   14.6880 O.3    35  C35        -0.1955
    291  OP2       23.8910   20.8480   12.7160 O.co2  35  C35        -0.7863
    292  P         23.7640   15.2620   15.1870 P.3    36  G36         0.2141
    293  C5'       22.2350   13.2650   15.8360 C.3    36  G36         0.1812
    294  O5'       22.7730   14.0770   14.8230 O.3    36  G36        -0.3114
    295  C4'       20.9510   12.6590   15.3700 C.3    36  G36         0.1773
    296  O4'       20.0320   13.7040   14.9720 O.3    36  G36        -0.3307
    297  C3'       21.0500   11.8520   14.1010 C.3    36  G36         0.1860
    298  O3'       21.6530   10.5940   14.3750 O.3    36  G36        -0.3112
    299  C2'       19.5800   11.7520   13.7270 C.3    36  G36         0.2309
    300  O2'       18.9130   10.8510   14.5840 O.3    36  G36        -0.2156
    301  C1'       19.1070   13.1750   14.0420 C.3    36  G36         0.2408
    302  N1        16.5720   14.3300    9.8280 N.ar   36  G36        -0.1709
    303  C2        16.3770   13.3170   10.7310 C.ar   36  G36         0.2606
    304  N2        15.3330   12.5180   10.5090 N.pl3  36  G36        -0.0859
    305  N3        17.1410   13.1020   11.7750 N.ar   36  G36        -0.1918
    306  C4        18.1210   14.0110   11.8800 C.ar   36  G36         0.1723
    307  C5        18.4160   15.0640   11.0430 C.ar   36  G36         0.1748
    308  C6        17.6020   15.2630    9.8840 C.ar   36  G36         0.3023
    309  O6        17.7210   16.1110    8.9710 O.2    36  G36        -0.2633
    310  N7        19.5140   15.7730   11.5120 N.ar   36  G36        -0.2173
    311  C8        19.8520   15.1480   12.6090 C.ar   36  G36         0.1817
    312  N9        19.0390   14.0750   12.8920 N.ar   36  G36        -0.2693
    313  OP1       24.9310   14.6950   15.9060 O.3    36  G36        -0.4373
    314  OP2       23.9740   16.1060   13.9850 O.co2  36  G36        -0.5172
    315  P         22.4200    9.8070   13.2060 P.3    37  G37         0.2141
    316  C5'       20.3680    8.1960   13.0300 C.3    37  G37         0.1812
    317  O5'       21.2140    9.1430   12.4040 O.3    37  G37        -0.3114
    318  C4'       19.2450    7.7940   12.1030 C.3    37  G37         0.1773
    319  O4'       18.2920    8.8790   11.9430 O.3    37  G37        -0.3307
    320  C3'       19.6080    7.4110   10.6800 C.3    37  G37         0.1860
    321  O3'       20.0070    6.0680   10.5850 O.3    37  G37        -0.3112
    322  C2'       18.2800    7.5840    9.9750 C.3    37  G37         0.2309
    323  O2'       17.4040    6.5170   10.2630 O.3    37  G37        -0.2156
    324  C1'       17.7980    8.8860   10.6090 C.3    37  G37         0.2408
    325  N1        17.2890   12.2020    6.7980 N.ar   37  G37        -0.1709
    326  C2        16.5800   11.0530    7.0470 C.ar   37  G37         0.2606
    327  N2        15.5790   10.7830    6.1920 N.pl3  37  G37        -0.0859
    328  N3        16.8290   10.2340    8.0600 N.ar   37  G37        -0.1918
    329  C4        17.8570   10.6710    8.8100 C.ar   37  G37         0.1723
    330  C5        18.6310   11.7990    8.6370 C.ar   37  G37         0.1748
    331  C6        18.3450   12.6670    7.5610 C.ar   37  G37         0.3023
    332  O6        18.8900   13.7260    7.2680 O.2    37  G37        -0.2633
    333  N7        19.6040   11.8870    9.6250 N.ar   37  G37        -0.2173
    334  C8        19.3950   10.8420   10.3770 C.ar   37  G37         0.1817
    335  N9        18.3330   10.0750    9.9520 N.ar   37  G37        -0.2693
    336  OP1       23.2130    8.7530   13.8790 O.3    37  G37        -0.4373
    337  OP2       23.1100   10.7860   12.3250 O.co2  37  G37        -0.5172
    338  P         21.1700    5.6790    9.5660 P.3    38  C38         0.2141
    339  C5'       19.4410    5.2130    7.6590 C.3    38  C38         0.1812
    340  O5'       20.5270    6.0010    8.1430 O.3    38  C38        -0.3114
    341  C4'       18.7840    5.8780    6.4790 C.3    38  C38         0.1773
    342  O4'       18.4020    7.2300    6.8300 O.3    38  C38        -0.3307
    343  C3'       19.6440    6.1280    5.2630 C.3    38  C38         0.1860
    344  O3'       19.8700    4.9650    4.5010 O.3    38  C38        -0.3112
    345  C2'       18.7790    7.1180    4.5110 C.3    38  C38         0.2309
    346  O2'       17.6380    6.5280    3.9470 O.3    38  C38        -0.2156
    347  C1'       18.3570    8.0250    5.6570 C.3    38  C38         0.2420
    348  N1        19.2990    9.1390    5.7920 N.ar   38  C38        -0.2535
    349  C2        19.1890   10.1690    4.8880 C.ar   38  C38         0.3532
    350  O2        18.3280   10.0770    4.0110 O.2    38  C38        -0.2443
    351  N3        20.0190   11.2270    4.9720 N.ar   38  C38        -0.1739
    352  C4        20.9570   11.2570    5.9040 C.ar   38  C38         0.1759
    353  N4        21.7710   12.3160    5.9260 N.pl3  38  C38        -0.1070
    354  C5        21.1090   10.2000    6.8510 C.ar   38  C38         0.0566
    355  C6        20.2590    9.1690    6.7630 C.ar   38  C38         0.0850
    356  OP1       21.3550    4.2060    9.6560 O.2    38  C38        -0.5172
    357  OP2       22.3190    6.5840    9.8410 O.co2  38  C38        -0.4373
    358  P         21.1700    4.8840    3.5700 P.3    39  G39         0.2141
    359  C5'       19.7720    5.5010    1.4380 C.3    39  G39         0.1812
    360  O5'       20.8180    5.8320    2.3430 O.3    39  G39        -0.3114
    361  C4'       19.6120    6.5900    0.4040 C.3    39  G39         0.1773
    362  O4'       19.2370    7.8240    1.0760 O.3    39  G39        -0.3307
    363  C3'       20.8740    6.9590   -0.3600 C.3    39  G39         0.1860
    364  O3'       21.0930    6.0920   -1.4620 O.3    39  G39        -0.3112
    365  C2'       20.5580    8.3790   -0.8190 C.3    39  G39         0.2309
    366  O2'       19.7450    8.4780   -1.9710 O.3    39  G39        -0.2156
    367  C1'       19.8070    8.9270    0.3930 C.3    39  G39         0.2408
    368  N1        22.3890   13.2060    1.0700 N.ar   39  G39        -0.1709
    369  C2        21.5060   12.8520    0.0840 C.ar   39  G39         0.2606
    370  N2        21.3080   13.7440   -0.8760 N.pl3  39  G39        -0.0859
    371  N3        20.8680   11.7020    0.0400 N.ar   39  G39        -0.1918
    372  C4        21.1930   10.9020    1.0770 C.ar   39  G39         0.1723
    373  C5        22.0630   11.1480    2.1160 C.ar   39  G39         0.1748
    374  C6        22.7390   12.4110    2.1560 C.ar   39  G39         0.3023
    375  O6        23.5430   12.8440    3.0010 O.2    39  G39        -0.2633
    376  N7        22.1230   10.0550    2.9730 N.ar   39  G39        -0.2173
    377  C8        21.3010    9.1850    2.4450 C.ar   39  G39         0.1817
    378  N9        20.7200    9.6330    1.2840 N.ar   39  G39        -0.2693
    379  OP1       21.2270    3.4770    3.1080 O.2    39  G39        -0.5172
    380  OP2       22.3330    5.4790    4.2840 O.co2  39  G39        -0.4373
    381  P         22.3420    5.0750   -1.4450 P.3    40  A40         0.2141
    382  C5'       23.3250    5.8590   -3.7460 C.3    40  A40         0.1812
    383  O5'       22.6550    4.8590   -2.9910 O.3    40  A40        -0.3114
    384  C4'       24.7430    5.4230   -4.0360 C.3    40  A40         0.1773
    385  O4'       24.7660    4.2540   -4.8930 O.3    40  A40        -0.3307
    386  C3'       25.6440    6.4510   -4.7020 C.3    40  A40         0.1860
    387  O3'       26.2330    7.1680   -3.6210 O.3    40  A40        -0.3112
    388  C2'       26.6780    5.5750   -5.4160 C.3    40  A40         0.2309
    389  O2'       27.7620    5.1890   -4.5950 O.3    40  A40        -0.2156
    390  C1'       25.8670    4.3280   -5.7750 C.3    40  A40         0.2408
    391  N1        27.0400    3.6430  -10.7570 N.ar   40  A40        -0.2040
    392  C2        27.8000    3.7040   -9.6520 C.ar   40  A40         0.2016
    393  N3        27.4350    3.9160   -8.3800 N.ar   40  A40        -0.2048
    394  C4        26.1030    4.0790   -8.2890 C.ar   40  A40         0.1692
    395  C5        25.1880    4.0570   -9.3330 C.ar   40  A40         0.1518
    396  C6        25.7010    3.8250  -10.6320 C.ar   40  A40         0.1919
    397  N6        24.9410    3.7810  -11.7330 N.pl3  40  A40        -0.1054
    398  N7        23.9000    4.2780   -8.8620 N.ar   40  A40        -0.2193
    399  C8        24.0570    4.4150   -7.5680 C.ar   40  A40         0.1816
    400  N9        25.3620    4.2870   -7.1490 N.ar   40  A40        -0.2693
    401  OP1       21.8250    3.7960   -0.9020 O.2    40  A40        -0.5172
    402  OP2       23.5470    5.6900   -0.8250 O.co2  40  A40        -0.4373
    403  P         27.1080    8.4820   -3.8890 P.3    41  A41         0.2141
    404  C5'       29.4870    7.8160   -4.7540 C.3    41  A41         0.1812
    405  O5'       28.1160    8.0550   -5.0400 O.3    41  A41        -0.3114
    406  C4'       30.2910    7.8190   -6.0350 C.3    41  A41         0.1773
    407  O4'       29.6540    6.9630   -7.0110 O.3    41  A41        -0.3307
    408  C3'       30.3860    9.1260   -6.7990 C.3    41  A41         0.1860
    409  O3'       31.4140    9.9200   -6.2190 O.3    41  A41        -0.3112
    410  C2'       30.8430    8.6420   -8.1720 C.3    41  A41         0.2309
    411  O2'       32.2430    8.4370   -8.1730 O.3    41  A41        -0.2156
    412  C1'       30.1510    7.2810   -8.2880 C.3    41  A41         0.2408
    413  N1        28.6250    6.4420  -13.1340 N.ar   41  A41        -0.2040
    414  C2        29.8430    6.5860  -12.5980 C.ar   41  A41         0.2016
    415  N3        30.1800    6.8410  -11.3430 N.ar   41  A41        -0.2048
    416  C4        29.0860    6.9620  -10.5790 C.ar   41  A41         0.1692
    417  C5        27.7700    6.8490  -10.9890 C.ar   41  A41         0.1518
    418  C6        27.5430    6.5650  -12.3270 C.ar   41  A41         0.1919
    419  N6        26.3240    6.3960  -12.8420 N.pl3  41  A41        -0.1054
    420  N7        26.9050    7.0370   -9.9300 N.ar   41  A41        -0.2193
    421  C8        27.7040    7.2410   -8.9080 C.ar   41  A41         0.1816
    422  N9        29.0370    7.1840   -9.2250 N.ar   41  A41        -0.2693
    423  OP1       27.9330    8.6710   -2.6690 O.3    41  A41        -0.4373
    424  OP2       26.2180    9.5740   -4.3620 O.co2  41  A41        -0.5172
    425  P         31.0240   11.1250   -5.2400 P.3    42  G42         0.2141
    426  C5'       32.2480   12.9860   -6.5950 C.3    42  G42         0.1812
    427  O5'       31.0320   12.4060   -6.1720 O.3    42  G42        -0.3114
    428  C4'       32.2090   14.4770   -6.3870 C.3    42  G42         0.1773
    429  O4'       30.8670   14.9490   -6.0760 O.3    42  G42        -0.3307
    430  C3'       33.0690   14.9460   -5.2410 C.3    42  G42         0.1860
    431  O3'       34.3660   15.1310   -5.7580 O.3    42  G42        -0.3112
    432  C2'       32.4090   16.2600   -4.8650 C.3    42  G42         0.2309
    433  O2'       32.7890   17.3230   -5.7130 O.3    42  G42        -0.2156
    434  C1'       30.9290   15.9090   -5.0340 C.3    42  G42         0.2408
    435  N1        30.2330   16.3070   -0.0100 N.ar   42  G42        -0.1709
    436  C2        30.8490   17.1690   -0.8710 C.ar   42  G42         0.2606
    437  N2        31.3480   18.2680   -0.3320 N.pl3  42  G42        -0.0859
    438  N3        30.9660   16.9650   -2.1700 N.ar   42  G42        -0.1918
    439  C4        30.3860   15.8120   -2.5540 C.ar   42  G42         0.1723
    440  C5        29.7370   14.8780   -1.7740 C.ar   42  G42         0.1748
    441  C6        29.6450   15.1010   -0.3770 C.ar   42  G42         0.3023
    442  O6        29.1440   14.3780    0.4830 O.2    42  G42        -0.2633
    443  N7        29.2660   13.8290   -2.5500 N.ar   42  G42        -0.2173
    444  C8        29.6390   14.1320   -3.7650 C.ar   42  G42         0.1817
    445  N9        30.3370   15.3150   -3.8370 N.ar   42  G42        -0.2693
    446  OP1       32.0910   11.2800   -4.2240 O.3    42  G42        -0.4373
    447  OP2       29.6160   10.9370   -4.8070 O.co2  42  G42        -0.5172
    448  P         35.6310   14.7140   -4.8800 P.3    43  U43         0.2141
    449  C5'       35.6020   17.2960   -4.3660 C.3    43  U43         0.1812
    450  O5'       35.8240   15.9640   -3.9100 O.3    43  U43        -0.3114
    451  C4'       35.7520   18.2680   -3.2170 C.3    43  U43         0.1773
    452  O4'       34.5180   18.3660   -2.4590 O.3    43  U43        -0.3307
    453  C3'       36.8280   17.9160   -2.2050 C.3    43  U43         0.1860
    454  O3'       38.0780   18.4690   -2.5720 O.3    43  U43        -0.3112
    455  C2'       36.3320   18.5840   -0.9340 C.3    43  U43         0.2309
    456  O2'       36.7470   19.9310   -0.8750 O.3    43  U43        -0.2156
    457  C1'       34.8120   18.4520   -1.0770 C.3    43  U43         0.2420
    458  N1        34.2520   17.2600   -0.4240 N.ar   43  U43        -0.2534
    459  C2        34.0980   17.2850    0.9490 C.ar   43  U43         0.3546
    460  O2        34.3880   18.2500    1.6250 O.2    43  U43        -0.2443
    461  N3        33.5880   16.1320    1.4960 N.ar   43  U43        -0.1530
    462  C4        33.2190   14.9840    0.8170 C.ar   43  U43         0.2846
    463  O4        32.8490   13.9950    1.4510 O.2    43  U43        -0.2650
    464  C5        33.3940   15.0490   -0.6040 C.ar   43  U43         0.0814
    465  C6        33.8940   16.1550   -1.1600 C.ar   43  U43         0.0870
    466  OP1       36.7950   14.6150   -5.7950 O.2    43  U43        -0.5172
    467  OP2       35.2550   13.5370   -4.0520 O.co2  43  U43        -0.4373
    468  P         39.4180   17.7560   -2.0700 P.3    44  C44         0.2141
    469  C5'       39.8780   19.3470   -0.0350 C.3    44  C44         0.1812
    470  O5'       39.4540   18.0700   -0.5040 O.3    44  C44        -0.3114
    471  C4'       39.8510   19.4030    1.4730 C.3    44  C44         0.1773
    472  O4'       38.4910   19.2540    1.9510 O.3    44  C44        -0.3307
    473  C3'       40.6080   18.3270    2.2260 C.3    44  C44         0.1860
    474  O3'       41.9870   18.6220    2.3100 O.3    44  C44        -0.3112
    475  C2'       39.9620   18.4200    3.5990 C.3    44  C44         0.2309
    476  O2'       40.3850   19.5280    4.3600 O.3    44  C44        -0.2156
    477  C1'       38.5010   18.5970    3.2110 C.3    44  C44         0.2420
    478  N1        37.8600   17.2910    3.0520 N.ar   44  C44        -0.2535
    479  C2        37.4890   16.5820    4.1980 C.ar   44  C44         0.3532
    480  O2        37.6970   17.0930    5.3120 O.2    44  C44        -0.2443
    481  N3        36.9110   15.3680    4.0610 N.ar   44  C44        -0.1739
    482  C4        36.6870   14.8700    2.8440 C.ar   44  C44         0.1759
    483  N4        36.0990   13.6840    2.7530 N.pl3  44  C44        -0.1070
    484  C5        37.0530   15.5740    1.6620 C.ar   44  C44         0.0566
    485  C6        37.6320   16.7700    1.8100 C.ar   44  C44         0.0850
    486  OP1       40.5870   18.4160   -2.6960 O.2    44  C44        -0.5172
    487  OP2       39.1970   16.3040   -2.2830 O.co2  44  C44        -0.4373
    488  P         43.0110   17.4820    2.7840 P.3    45  G45         0.2141
    489  C5'       42.8810   17.9100    5.3730 C.3    45  G45         0.1812
    490  O5'       42.5410   17.0860    4.2570 O.3    45  G45        -0.3114
    491  C4'       42.4800   17.2450    6.6710 C.3    45  G45         0.1773
    492  O4'       41.0560   16.9540    6.6510 O.3    45  G45        -0.3307
    493  C3'       43.1000   15.8940    6.9790 C.3    45  G45         0.1860
    494  O3'       44.3710   16.0360    7.5730 O.3    45  G45        -0.3112
    495  C2'       42.1200   15.3530    8.0020 C.3    45  G45         0.2309
    496  O2'       42.2130   16.0080    9.2470 O.3    45  G45        -0.2156
    497  C1'       40.8050   15.7430    7.3500 C.3    45  G45         0.2408
    498  N1        38.3690   11.3400    6.8120 N.ar   45  G45        -0.1709
    499  C2        38.7850   11.9690    7.9510 C.ar   45  G45         0.2606
    500  N2        38.4470   11.3790    9.1020 N.pl3  45  G45        -0.0859
    501  N3        39.4760   13.0980    7.9630 N.ar   45  G45        -0.1918
    502  C4        39.7050   13.5620    6.7180 C.ar   45  G45         0.1723
    503  C5        39.3410   13.0050    5.5150 C.ar   45  G45         0.1748
    504  C6        38.6040   11.7910    5.5210 C.ar   45  G45         0.3023
    505  O6        38.1750   11.1460    4.5650 O.2    45  G45        -0.2633
    506  N7        39.7740   13.7930    4.4570 N.ar   45  G45        -0.2173
    507  C8        40.3630   14.8070    5.0300 C.ar   45  G45         0.1817
    508  N9        40.3270   14.7430    6.4010 N.ar   45  G45        -0.2693
    509  OP1       44.3490   18.1170    2.9120 O.3    45  G45        -0.4373
    510  OP2       42.8240   16.3200    1.8840 O.co2  45  G45        -0.5172
    511  P         45.4180   14.8190    7.5090 P.3    46  C46         0.2141
    512  C5'       44.5630   13.8160    9.7710 C.3    46  C46         0.1813
    513  O5'       44.7620   13.6560    8.3770 O.3    46  C46        -0.3114
    514  C4'       43.7280   12.6840   10.2980 C.3    46  C46         0.1801
    515  O4'       42.5690   12.5570    9.4390 O.3    46  C46        -0.3306
    516  C3'       44.3510   11.2990   10.2290 C.3    46  C46         0.2161
    517  O3'       45.3520   10.9870   11.2090 O.3    46  C46        -0.2175
    518  C2'       43.1230   10.3990   10.2700 C.3    46  C46         0.2338
    519  O2'       42.5970   10.2260   11.5710 O.3    46  C46        -0.2155
    520  C1'       42.1330   11.2100    9.4340 C.3    46  C46         0.2421
    521  N1        42.0180   10.7620    8.0410 N.ar   46  C46        -0.2535
    522  C2        41.2580    9.6250    7.7700 C.ar   46  C46         0.3532
    523  O2        40.7410    9.0140    8.7200 O.2    46  C46        -0.2443
    524  N3        41.1030    9.2220    6.4870 N.ar   46  C46        -0.1739
    525  C4        41.6740    9.9090    5.4970 C.ar   46  C46         0.1759
    526  N4        41.4570    9.4900    4.2420 N.pl3  46  C46        -0.1070
    527  C5        42.4820   11.0600    5.7470 C.ar   46  C46         0.0566
    528  C6        42.6260   11.4480    7.0230 C.ar   46  C46         0.0850
    529  OP1       46.6290   15.3290    8.2120 O.3    46  C46        -0.4373
    530  OP2       45.5330   14.3180    6.1140 O.co2  46  C46        -0.5172
@<TRIPOS>BOND
     1   413   414   ar
     2   413   418   ar
     3   419   418    1
     4   414   415   ar
     5   418   417   ar
     6   397   396    1
     7   415   416   ar
     8   417   416   ar
     9   417   420   ar
    10   391   396   ar
    11   391   392   ar
    12   396   395   ar
    13   416   422   ar
    14   420   421   ar
    15   392   393   ar
    16   395   398   ar
    17   395   394   ar
    18   422   421   ar
    19   422   412    1
    20   398   399   ar
    21   393   394   ar
    22   394   400   ar
    23   412   410    1
    24   412   407    1
    25   411   410    1
    26   410   408    1
    27   399   400   ar
    28   400   390    1
    29   407   406    1
    30   408   409    1
    31   408   406    1
    32   426   428    1
    33   426   427    1
    34   428   429    1
    35   428   430    1
    36     1     2    1
    37     1     3    1
    38   409   425    1
    39   427   425    1
    40   429   434    1
    41   406   404    1
    42   466   448    2
    43   390   388    1
    44   390   385    1
    45   431   430    1
    46   431   448    1
    47   433   432    1
    48     3     4    1
    49     3     5    1
    50   388   386    1
    51   388   389    1
    52   430   432    1
    53   425   447    2
    54   425   446    1
    55     4     9    1
    56   405   404    1
    57   405   403    1
    58   434   432    1
    59   434   445    1
    60   385   384    1
    61   448   467    1
    62   448   450    1
    63   386   384    1
    64   386   387    1
    65   449   450    1
    66   449   451    1
    67   424   403    2
    68     6     5    1
    69     6    18    1
    70     5     7    1
    71   384   382    1
    72   403   387    1
    73   403   423    1
    74   445   444   ar
    75   445   439   ar
    76     9     7    1
    77     9    10    1
    78     8     7    1
    79   444   443   ar
    80   382   383    1
    81    36    18    2
    82    17    10   ar
    83    17    16   ar
    84   174   173    1
    85   451   452    1
    86   451   453    1
    87    18    37    1
    88    18    20    1
    89   383   381    1
    90    10    11   ar
    91   486   468    2
    92    16    14   ar
    93   454   453    1
    94   454   468    1
    95   439   438   ar
    96   439   440   ar
    97   443   440   ar
    98   452   457    1
    99   187   189    1
   100   187   188    1
   101   487   468    1
   102   189   190    1
   103   189   191    1
   104   453   455    1
   105   438   436   ar
   106   468   470    1
   107   366   365    1
   108   173   175    1
   109   173   171    1
   110   172   171    1
   111   172   186    1
   112   190   195    1
   113   169   170    1
   114   169   171    1
   115   169   167    1
   116   207   186    2
   117   440   441   ar
   118    20    19    1
   119    11    12    2
   120    11    13   ar
   121   194   193    1
   122   175   170    1
   123   175   176    1
   124   192   191    1
   125   192   209    1
   126    19    21    1
   127   364   381    1
   128   364   363    1
   129   381   401    2
   130   381   402    1
   131   152   151    1
   132   178   177    2
   133    14    13   ar
   134    14    15    2
   135   227   209    2
   136   465   464   ar
   137   465   458   ar
   138   188   186    1
   139   167   168    1
   140   191   193    1
   141   457   455    1
   142   457   458    1
   143   186   208    1
   144   155   156   ar
   145   155   154   ar
   146   195   193    1
   147   195   206    1
   148   455   456    1
   149   156   157   ar
   150   370   369    1
   151   436   437    1
   152   436   435   ar
   153   365   363    1
   154   365   367    1
   155   464   462   ar
   156   210   211    1
   157   210   212    1
   158   470   469    1
   159   458   459   ar
   160   209   211    1
   161   209   228    1
   162   441   435   ar
   163   441   442    2
   164   363   361    1
   165   176   177   ar
   166   176   183   ar
   167   177   179   ar
   168   151   153    1
   169   151   149    1
   170   154   159   ar
   171    34    35   ar
   172    34    32   ar
   173    21    22    1
   174    21    23    1
   175   469   471    1
   176    22    27    1
   177    35    28   ar
   178   371   369   ar
   179   371   372   ar
   180   369   368   ar
   181   212   213    1
   182   212   214    1
   183   206   205   ar
   184   206   200   ar
   185   153   163    1
   186   153   148    1
   187   168   166    1
   188   367   362    1
   189   367   378    1
   190   361   362    1
   191   361   359    1
   192   157   163   ar
   193   157   158   ar
   194   213   218    1
   195   150   149    1
   196   150   166    1
   197   205   204   ar
   198   462   463    2
   199   462   461   ar
   200   183   182   ar
   201   179   180   ar
   202   459   461   ar
   203   459   460    2
   204   163   162   ar
   205    32    33    2
   206    32    31   ar
   207   199   200   ar
   208   199   197   ar
   209    23    24    1
   210    23    25    1
   211   184   166    2
   212   149   147    1
   213   368   374   ar
   214   372   378   ar
   215   372   373   ar
   216   200   201   ar
   217   148   147    1
   218   159   158   ar
   219   159   160    1
   220    28    27    1
   221    28    29   ar
   222   166   185    1
   223   378   377   ar
   224    27    25    1
   225    60    38    2
   226   147   145    1
   227    24    38    1
   228   359   360    1
   229   158   161   ar
   230   471   472    1
   231   471   473    1
   232   215   214    1
   233   215   229    1
   234   214   216    1
   235   484   485   ar
   236   484   482   ar
   237   217   216    1
   238   218   216    1
   239   218   219    1
   240   485   478   ar
   241   510   488    2
   242   204   201   ar
   243   472   477    1
   244   197   198    1
   245   197   196   ar
   246   182   180   ar
   247   180   181    1
   248    38    59    1
   249    38    40    1
   250    31    29   ar
   251   373   374   ar
   252   373   376   ar
   253    25    26    1
   254   201   202   ar
   255   374   375    2
   256   473   474    1
   257   473   475    1
   258    29    30    2
   259   474   488    1
   260   162   161   ar
   261   226   219   ar
   262   226   225   ar
   263   360   358    1
   264   136   135    2
   265   377   376   ar
   266   247   229    2
   267   219   220   ar
   268   483   482    1
   269   488   509    1
   270   488   490    1
   271   137   135   ar
   272   137   138   ar
   273   229   248    1
   274   229   231    1
   275   482   481   ar
   276   145   146    1
   277   196   202   ar
   278   478   477    1
   279   478   479   ar
   280   379   358    2
   281   225   223   ar
   282   135   134   ar
   283   202   203    2
   284   477   475    1
   285   139   138    1
   286    56    57   ar
   287    56    53   ar
   288   358   380    1
   289   358   344    1
   290    40    39    1
   291   475   476    1
   292   220   221    2
   293   220   222   ar
   294    55    54    2
   295   138   140   ar
   296   146   144    1
   297   346   345    1
   298   231   230    1
   299    57    58   ar
   300   350   349    2
   301   230   232    1
   302   481   479   ar
   303   479   480    2
   304   223   222   ar
   305   223   224    1
   306   526   525    1
   307   490   489    1
   308   132   131    1
   309   506   507   ar
   310   506   503   ar
   311   344   343    1
   312   345   343    1
   313   345   347    1
   314   119   118    2
   315   134   133    1
   316   134   141   ar
   317   505   504    2
   318    53    54   ar
   319    53    52   ar
   320    39    41    1
   321   131   133    1
   322   131   129    1
   323    54    48   ar
   324   349   351   ar
   325   349   348   ar
   326    76    75    1
   327   133   128    1
   328   351   352   ar
   329   507   508   ar
   330   233   232    1
   331   233   238    1
   332   140   141   ar
   333    98    97    2
   334   232   234    1
   335   343   341    1
   336   144   164    2
   337   144   165    1
   338   144   130    1
   339    58    52   ar
   340    58    47    1
   341   489   491    1
   342    42    41    1
   343    42    47    1
   344   525   527   ar
   345   525   524   ar
   346   503   504   ar
   347   503   502   ar
   348   504   498   ar
   349   246   245   ar
   350   246   239   ar
   351   347   348    1
   352   347   342    1
   353   118   117   ar
   354   118   120   ar
   355    52    51   ar
   356   245   243   ar
   357   527   528   ar
   358   348   355   ar
   359    41    43    1
   360   129   130    1
   361   129   127    1
   362   352   353    1
   363   352   354   ar
   364    48    49   ar
   365    75    77   ar
   366    75    74   ar
   367   530   511    2
   368   117   115   ar
   369   327   326    1
   370    77    78   ar
   371    47    45    1
   372    80    61    2
   373    97    91   ar
   374    97    96   ar
   375   128   127    1
   376   238   239    1
   377   238   236    1
   378   508   502   ar
   379   508   497    1
   380    91    92   ar
   381   341   342    1
   382   341   339    1
   383   239   240   ar
   384   524   522   ar
   385    43    45    1
   386    43    44    1
   387   234   235    1
   388   234   236    1
   389   492   491    1
   390   492   497    1
   391   491   493    1
   392   502   501   ar
   393   120   121   ar
   394   355   354   ar
   395   325   326   ar
   396   325   331   ar
   397   498   499   ar
   398   243   244    1
   399   243   242   ar
   400   127   125    1
   401   493   494    1
   402   493   495    1
   403    51    49   ar
   404   528   521   ar
   405    49    50    1
   406   326   328   ar
   407   235   249    1
   408    74    72   ar
   409    45    46    1
   410   332   331    2
   411   497   495    1
   412   236   237    1
   413   115   116    2
   414   115   114   ar
   415   271   249    2
   416    44    61    1
   417    78    71   ar
   418   511   494    1
   419   511   529    1
   420   511   513    1
   421    96    99   ar
   422    96    95   ar
   423   331   330   ar
   424   240   242   ar
   425   240   241    2
   426    61    79    1
   427    61    63    1
   428    93    92    1
   429   339   340    1
   430    92    94   ar
   431   522   521   ar
   432   522   523    2
   433    99   100   ar
   434   499   501   ar
   435   499   500    1
   436   121   114   ar
   437   249   270    1
   438   249   251    1
   439   495   496    1
   440   521   520    1
   441   328   329   ar
   442   340   338    1
   443   125   126    1
   444   114   113    1
   445   126   124    1
   446    72    71   ar
   447    72    73    2
   448   513   512    1
   449    71    70    1
   450    63    62    1
   451   330   329   ar
   452   330   333   ar
   453    95    94   ar
   454    95   101   ar
   455   329   335   ar
   456   309   308    2
   457   143   124    2
   458   100   101   ar
   459   520   515    1
   460   520   518    1
   461   251   250    1
   462   515   514    1
   463   338   356    2
   464   338   357    1
   465   338   321    1
   466   124   142    1
   467   124   110    1
   468   333   334   ar
   469   113   111    1
   470   113   108    1
   471   111   109    1
   472   111   112    1
   473   101    90    1
   474   512   514    1
   475    65    70    1
   476    65    64    1
   477   267   268   ar
   478   267   264   ar
   479   302   308   ar
   480   302   303   ar
   481   308   307   ar
   482    70    68    1
   483    62    64    1
   484   335   334   ar
   485   335   324    1
   486   322   323    1
   487   322   324    1
   488   322   320    1
   489   268   269   ar
   490   109   110    1
   491   109   107    1
   492   250   252    1
   493   516   518    1
   494   516   514    1
   495   516   517    1
   496   518   519    1
   497   103    81    2
   498   266   265    2
   499   304   303    1
   500    64    66    1
   501   321   320    1
   502    66    68    1
   503    66    67    1
   504   108   107    1
   505   324   319    1
   506   320   318    1
   507   303   305   ar
   508    68    69    1
   509   253   252    1
   510   253   258    1
   511   264   265   ar
   512   264   263   ar
   513   287   286    1
   514   307   310   ar
   515   307   306   ar
   516   265   259   ar
   517    90    88    1
   518    90    85    1
   519   269   263   ar
   520   269   258    1
   521   123   104    2
   522   252   254    1
   523   107   105    1
   524   106   104    1
   525   106   105    1
   526   310   311   ar
   527    88    86    1
   528    88    89    1
   529   263   262   ar
   530    81    67    1
   531    81    83    1
   532    81   102    1
   533    83    82    1
   534   258   256    1
   535   305   306   ar
   536    85    84    1
   537   306   312   ar
   538   319   318    1
   539    86    84    1
   540    86    87    1
   541   318   316    1
   542   259   260   ar
   543   286   288   ar
   544   286   285   ar
   545   104    87    1
   546   104   122    1
   547   337   315    2
   548   254   256    1
   549   254   255    1
   550   317   316    1
   551   317   315    1
   552   288   289   ar
   553   311   312   ar
   554   291   272    1
   555   262   260   ar
   556    84    82    1
   557   312   301    1
   558   260   261    1
   559   256   257    1
   560   285   283   ar
   561   315   336    1
   562   315   298    1
   563   299   301    1
   564   299   297    1
   565   299   300    1
   566   289   282   ar
   567   314   292    2
   568   301   296    1
   569   297   298    1
   570   297   295    1
   571   272   290    1
   572   272   274    1
   573   283   282   ar
   574   283   284    2
   575   282   281    1
   576   274   273    1
   577   294   292    1
   578   294   293    1
   579   296   295    1
   580   292   313    1
   581   292   278    1
   582   295   293    1
   583   277   279    1
   584   277   278    1
   585   277   275    1
   586   281   279    1
   587   281   276    1
   588   279   280    1
   589   273   275    1
   590   276   275    1
