ligand
 OpenBabel02271912143D
libRbt.so/2013.1/901 2013/11/27
 12 13  0  0  0  0  0  0  0  0999 V2000
    6.6871   17.6153    1.6815 C   0  0  0  0  0  0  0  0  0  0  0  0
    5.3703   16.3578    3.1375 C   0  0  0  0  0  0  0  0  0  0  0  0
    7.1705   17.8043    0.4570 N   0  0  0  0  0  0  0  0  0  0  0  0
    4.5850   15.3128    3.4207 N   0  0  0  0  0  0  0  0  0  0  0  0
    5.8879   16.5518    1.9171 N   0  0  0  0  0  0  0  0  0  0  0  0
    6.9791   18.5007    2.6600 N   0  0  0  0  0  0  0  0  0  0  0  0
    5.4586   17.9580    6.4690 N   0  0  0  0  0  0  0  0  0  0  0  0
    6.2879   19.0541    6.1854 C   0  0  0  0  0  0  0  0  0  0  0  0
    6.8110   19.2266    4.8826 N   0  0  0  0  0  0  0  0  0  0  0  0
    6.4884   18.3419    3.9145 C   0  0  0  0  0  0  0  0  0  0  0  0
    5.6541   17.2507    4.1781 C   0  0  0  0  0  0  0  0  0  0  0  0
    5.1284   17.0408    5.4516 C   0  0  0  0  0  0  0  0  0  0  0  0
  1  3  1  0  0  0  0
  1  5  1  0  0  0  0
  1  6  2  0  0  0  0
  2  5  2  0  0  0  0
  2 11  1  0  0  0  0
  2  4  1  0  0  0  0
  6 10  1  0  0  0  0
  7  8  2  0  0  0  0
  7 12  1  0  0  0  0
  8  9  1  0  0  0  0
  9 10  2  0  0  0  0
 10 11  1  0  0  0  0
 11 12  2  0  0  0  0
M  END
>  <CHROM.1>
6.05050744,17.58258838,3.66594157,-1.32702803,0.92943482,1.15116295

>  <Name>
ligand

>  <RI>
0

>  <Rbt.Current_Directory>
/home/itssahil/PROJECTS/Mol_Feturizer/Test_systems_manuscript/rnas/4lx5

>  <Rbt.Executable>
rbdock ($Id: //depot/dev/client3/rdock/2013.1/src/exe/rbdock.cxx#4 $)

>  <Rbt.Library>
libRbt.so (2013.1, Build901 2013/11/27)

>  <Rbt.Parameter_File>
/export/apps/rDock/src/rDock_2013.1_src/data/scripts/dock_solv.prm

>  <Rbt.Receptor>
prm/pocket_docking_4.prm

>  <SCORE>
-14.0282

>  <SCORE.INTER>
-14.0282

>  <SCORE.INTER.CONST>
1

>  <SCORE.INTER.POLAR>
0

>  <SCORE.INTER.ROT>
0

>  <SCORE.INTER.SOLV>
19.0636

>  <SCORE.INTER.VDW>
-19.3067

>  <SCORE.INTER.norm>
-1.16902

>  <SCORE.INTRA>
0

>  <SCORE.INTRA.DIHEDRAL>
0

>  <SCORE.INTRA.DIHEDRAL.0>
0

>  <SCORE.INTRA.POLAR>
0

>  <SCORE.INTRA.POLAR.0>
0

>  <SCORE.INTRA.REPUL>
0

>  <SCORE.INTRA.REPUL.0>
0

>  <SCORE.INTRA.SOLV>
0

>  <SCORE.INTRA.SOLV.lig_0>
-48.1583

>  <SCORE.INTRA.VDW>
0

>  <SCORE.INTRA.VDW.0>
0

>  <SCORE.INTRA.norm>
0

>  <SCORE.RESTR>
0

>  <SCORE.RESTR.CAVITY>
0

>  <SCORE.RESTR.norm>
0

>  <SCORE.SYSTEM>
0

>  <SCORE.SYSTEM.CONST>
0

>  <SCORE.SYSTEM.DIHEDRAL>
0

>  <SCORE.SYSTEM.SOLV>
0

>  <SCORE.SYSTEM.norm>
0

>  <SCORE.heavy>
12

>  <SCORE.norm>
-1.16902

>  <RMSD>
0.402

$$$$
ligand
 OpenBabel02271912143D
libRbt.so/2013.1/901 2013/11/27
 12 13  0  0  0  0  0  0  0  0999 V2000
    6.6581   17.5630    1.7199 C   0  0  0  0  0  0  0  0  0  0  0  0
    5.3254   16.3025    3.1586 C   0  0  0  0  0  0  0  0  0  0  0  0
    7.1479   17.7598    0.4991 N   0  0  0  0  0  0  0  0  0  0  0  0
    4.5303   15.2614    3.4287 N   0  0  0  0  0  0  0  0  0  0  0  0
    5.8492   16.5040    1.9422 N   0  0  0  0  0  0  0  0  0  0  0  0
    6.9537   18.4365    2.7080 N   0  0  0  0  0  0  0  0  0  0  0  0
    5.4139   17.8698    6.5057 N   0  0  0  0  0  0  0  0  0  0  0  0
    6.2533   18.9616    6.2359 C   0  0  0  0  0  0  0  0  0  0  0  0
    6.7829   19.1423    4.9369 N   0  0  0  0  0  0  0  0  0  0  0  0
    6.4568   18.2697    3.9591 C   0  0  0  0  0  0  0  0  0  0  0  0
    5.6125   17.1831    4.2089 C   0  0  0  0  0  0  0  0  0  0  0  0
    5.0801   16.9653    5.4783 C   0  0  0  0  0  0  0  0  0  0  0  0
  1  3  1  0  0  0  0
  1  5  1  0  0  0  0
  1  6  2  0  0  0  0
  2  5  2  0  0  0  0
  2 11  1  0  0  0  0
  2  4  1  0  0  0  0
  6 10  1  0  0  0  0
  7  8  2  0  0  0  0
  7 12  1  0  0  0  0
  8  9  1  0  0  0  0
  9 10  2  0  0  0  0
 10 11  1  0  0  0  0
 11 12  2  0  0  0  0
M  END
>  <CHROM.1>
6.01360907,17.51651351,3.70145237,-1.32672385,0.92029373,1.16057234

>  <Name>
ligand

>  <RI>
0

>  <Rbt.Current_Directory>
/home/itssahil/PROJECTS/Mol_Feturizer/Test_systems_manuscript/rnas/4lx5

>  <Rbt.Executable>
rbdock ($Id: //depot/dev/client3/rdock/2013.1/src/exe/rbdock.cxx#4 $)

>  <Rbt.Library>
libRbt.so (2013.1, Build901 2013/11/27)

>  <Rbt.Parameter_File>
/export/apps/rDock/src/rDock_2013.1_src/data/scripts/dock_solv.prm

>  <Rbt.Receptor>
prm/pocket_docking_3.prm

>  <SCORE>
-14.0654

>  <SCORE.INTER>
-14.0654

>  <SCORE.INTER.CONST>
1

>  <SCORE.INTER.POLAR>
0

>  <SCORE.INTER.ROT>
0

>  <SCORE.INTER.SOLV>
18.9054

>  <SCORE.INTER.VDW>
-19.2787

>  <SCORE.INTER.norm>
-1.17212

>  <SCORE.INTRA>
0

>  <SCORE.INTRA.DIHEDRAL>
0

>  <SCORE.INTRA.DIHEDRAL.0>
0

>  <SCORE.INTRA.POLAR>
0

>  <SCORE.INTRA.POLAR.0>
0

>  <SCORE.INTRA.REPUL>
0

>  <SCORE.INTRA.REPUL.0>
0

>  <SCORE.INTRA.SOLV>
0

>  <SCORE.INTRA.SOLV.lig_0>
-48.1583

>  <SCORE.INTRA.VDW>
0

>  <SCORE.INTRA.VDW.0>
0

>  <SCORE.INTRA.norm>
0

>  <SCORE.RESTR>
0

>  <SCORE.RESTR.CAVITY>
0

>  <SCORE.RESTR.norm>
0

>  <SCORE.SYSTEM>
0

>  <SCORE.SYSTEM.CONST>
0

>  <SCORE.SYSTEM.DIHEDRAL>
0

>  <SCORE.SYSTEM.SOLV>
0

>  <SCORE.SYSTEM.norm>
0

>  <SCORE.heavy>
12

>  <SCORE.norm>
-1.17212

>  <RMSD>
0.403

$$$$
ligand
 OpenBabel02271912143D
libRbt.so/2013.1/901 2013/11/27
 12 13  0  0  0  0  0  0  0  0999 V2000
    6.6819   17.5525    1.7356 C   0  0  0  0  0  0  0  0  0  0  0  0
    5.3380   16.3050    3.1752 C   0  0  0  0  0  0  0  0  0  0  0  0
    7.1785   17.7403    0.5162 N   0  0  0  0  0  0  0  0  0  0  0  0
    4.5384   15.2679    3.4477 N   0  0  0  0  0  0  0  0  0  0  0  0
    5.8687   16.4973    1.9603 N   0  0  0  0  0  0  0  0  0  0  0  0
    6.9750   18.4313    2.7198 N   0  0  0  0  0  0  0  0  0  0  0  0
    5.4141   17.8927    6.5130 N   0  0  0  0  0  0  0  0  0  0  0  0
    6.2581   18.9804    6.2407 C   0  0  0  0  0  0  0  0  0  0  0  0
    6.7949   19.1514    4.9433 N   0  0  0  0  0  0  0  0  0  0  0  0
    6.4712   18.2737    3.9693 C   0  0  0  0  0  0  0  0  0  0  0  0
    5.6223   17.1912    4.2215 C   0  0  0  0  0  0  0  0  0  0  0  0
    5.0828   16.9829    5.4895 C   0  0  0  0  0  0  0  0  0  0  0  0
  1  3  1  0  0  0  0
  1  5  1  0  0  0  0
  1  6  2  0  0  0  0
  2  5  2  0  0  0  0
  2 11  1  0  0  0  0
  2  4  1  0  0  0  0
  6 10  1  0  0  0  0
  7  8  2  0  0  0  0
  7 12  1  0  0  0  0
  8  9  1  0  0  0  0
  9 10  2  0  0  0  0
 10 11  1  0  0  0  0
 11 12  2  0  0  0  0
M  END
>  <CHROM.1>
6.02706851,17.52027430,3.71407935,-1.32094537,0.91548575,1.14977054

>  <Name>
ligand

>  <RI>
0

>  <Rbt.Current_Directory>
/home/itssahil/PROJECTS/Mol_Feturizer/Test_systems_manuscript/rnas/4lx5

>  <Rbt.Executable>
rbdock ($Id: //depot/dev/client3/rdock/2013.1/src/exe/rbdock.cxx#4 $)

>  <Rbt.Library>
libRbt.so (2013.1, Build901 2013/11/27)

>  <Rbt.Parameter_File>
/export/apps/rDock/src/rDock_2013.1_src/data/scripts/dock_solv.prm

>  <Rbt.Receptor>
prm/pocket_docking_3.prm

>  <SCORE>
-14.1074

>  <SCORE.INTER>
-14.1074

>  <SCORE.INTER.CONST>
1

>  <SCORE.INTER.POLAR>
0

>  <SCORE.INTER.ROT>
0

>  <SCORE.INTER.SOLV>
18.9249

>  <SCORE.INTER.VDW>
-19.3132

>  <SCORE.INTER.norm>
-1.17562

>  <SCORE.INTRA>
0

>  <SCORE.INTRA.DIHEDRAL>
0

>  <SCORE.INTRA.DIHEDRAL.0>
0

>  <SCORE.INTRA.POLAR>
0

>  <SCORE.INTRA.POLAR.0>
0

>  <SCORE.INTRA.REPUL>
0

>  <SCORE.INTRA.REPUL.0>
0

>  <SCORE.INTRA.SOLV>
0

>  <SCORE.INTRA.SOLV.lig_0>
-48.1583

>  <SCORE.INTRA.VDW>
0

>  <SCORE.INTRA.VDW.0>
0

>  <SCORE.INTRA.norm>
0

>  <SCORE.RESTR>
0

>  <SCORE.RESTR.CAVITY>
0

>  <SCORE.RESTR.norm>
0

>  <SCORE.SYSTEM>
0

>  <SCORE.SYSTEM.CONST>
0

>  <SCORE.SYSTEM.DIHEDRAL>
0

>  <SCORE.SYSTEM.SOLV>
0

>  <SCORE.SYSTEM.norm>
0

>  <SCORE.heavy>
12

>  <SCORE.norm>
-1.17562

>  <RMSD>
0.414

$$$$
ligand
 OpenBabel02271912143D
libRbt.so/2013.1/901 2013/11/27
 12 13  0  0  0  0  0  0  0  0999 V2000
    6.6726   17.5421    1.7376 C   0  0  0  0  0  0  0  0  0  0  0  0
    5.3327   16.2975    3.1834 C   0  0  0  0  0  0  0  0  0  0  0  0
    7.1652   17.7279    0.5162 N   0  0  0  0  0  0  0  0  0  0  0  0
    4.5334   15.2613    3.4600 N   0  0  0  0  0  0  0  0  0  0  0  0
    5.8595   16.4878    1.9665 N   0  0  0  0  0  0  0  0  0  0  0  0
    6.9696   18.4220    2.7196 N   0  0  0  0  0  0  0  0  0  0  0  0
    5.4211   17.8897    6.5188 N   0  0  0  0  0  0  0  0  0  0  0  0
    6.2649   18.9764    6.2422 C   0  0  0  0  0  0  0  0  0  0  0  0
    6.7975   19.1454    4.9427 N   0  0  0  0  0  0  0  0  0  0  0  0
    6.4699   18.2665    3.9710 C   0  0  0  0  0  0  0  0  0  0  0  0
    5.6212   17.1849    4.2275 C   0  0  0  0  0  0  0  0  0  0  0  0
    5.0858   16.9787    5.4976 C   0  0  0  0  0  0  0  0  0  0  0  0
  1  3  1  0  0  0  0
  1  5  1  0  0  0  0
  1  6  2  0  0  0  0
  2  5  2  0  0  0  0
  2 11  1  0  0  0  0
  2  4  1  0  0  0  0
  6 10  1  0  0  0  0
  7  8  2  0  0  0  0
  7 12  1  0  0  0  0
  8  9  1  0  0  0  0
  9 10  2  0  0  0  0
 10 11  1  0  0  0  0
 11 12  2  0  0  0  0
M  END
>  <CHROM.1>
6.02441384,17.51301296,3.71832802,-1.32645513,0.91625063,1.15277081

>  <Name>
ligand

>  <RI>
0

>  <Rbt.Current_Directory>
/home/itssahil/PROJECTS/Mol_Feturizer/Test_systems_manuscript/rnas/4lx5

>  <Rbt.Executable>
rbdock ($Id: //depot/dev/client3/rdock/2013.1/src/exe/rbdock.cxx#4 $)

>  <Rbt.Library>
libRbt.so (2013.1, Build901 2013/11/27)

>  <Rbt.Parameter_File>
/export/apps/rDock/src/rDock_2013.1_src/data/scripts/dock_solv.prm

>  <Rbt.Receptor>
prm/pocket_docking_5.prm

>  <SCORE>
-14.1455

>  <SCORE.INTER>
-14.1455

>  <SCORE.INTER.CONST>
1

>  <SCORE.INTER.POLAR>
0

>  <SCORE.INTER.ROT>
0

>  <SCORE.INTER.SOLV>
18.8969

>  <SCORE.INTER.VDW>
-19.3293

>  <SCORE.INTER.norm>
-1.17879

>  <SCORE.INTRA>
0

>  <SCORE.INTRA.DIHEDRAL>
0

>  <SCORE.INTRA.DIHEDRAL.0>
0

>  <SCORE.INTRA.POLAR>
0

>  <SCORE.INTRA.POLAR.0>
0

>  <SCORE.INTRA.REPUL>
0

>  <SCORE.INTRA.REPUL.0>
0

>  <SCORE.INTRA.SOLV>
0

>  <SCORE.INTRA.SOLV.lig_0>
-48.1583

>  <SCORE.INTRA.VDW>
0

>  <SCORE.INTRA.VDW.0>
0

>  <SCORE.INTRA.norm>
0

>  <SCORE.RESTR>
0

>  <SCORE.RESTR.CAVITY>
0

>  <SCORE.RESTR.norm>
0

>  <SCORE.SYSTEM>
0

>  <SCORE.SYSTEM.CONST>
0

>  <SCORE.SYSTEM.DIHEDRAL>
0

>  <SCORE.SYSTEM.SOLV>
0

>  <SCORE.SYSTEM.norm>
0

>  <SCORE.heavy>
12

>  <SCORE.norm>
-1.17879

>  <RMSD>
0.418

$$$$
ligand
 OpenBabel02271912143D
libRbt.so/2013.1/901 2013/11/27
 12 13  0  0  0  0  0  0  0  0999 V2000
    6.6814   17.5642    1.7378 C   0  0  0  0  0  0  0  0  0  0  0  0
    5.3366   16.3150    3.1751 C   0  0  0  0  0  0  0  0  0  0  0  0
    7.1757   17.7556    0.5180 N   0  0  0  0  0  0  0  0  0  0  0  0
    4.5341   15.2795    3.4450 N   0  0  0  0  0  0  0  0  0  0  0  0
    5.8651   16.5108    1.9598 N   0  0  0  0  0  0  0  0  0  0  0  0
    6.9798   18.4377    2.7251 N   0  0  0  0  0  0  0  0  0  0  0  0
    5.4259   17.8879    6.5196 N   0  0  0  0  0  0  0  0  0  0  0  0
    6.2730   18.9739    6.2501 C   0  0  0  0  0  0  0  0  0  0  0  0
    6.8074   19.1488    4.9522 N   0  0  0  0  0  0  0  0  0  0  0  0
    6.4784   18.2764    3.9751 C   0  0  0  0  0  0  0  0  0  0  0  0
    5.6264   17.1957    4.2246 C   0  0  0  0  0  0  0  0  0  0  0  0
    5.0891   16.9837    5.4929 C   0  0  0  0  0  0  0  0  0  0  0  0
  1  3  1  0  0  0  0
  1  5  1  0  0  0  0
  1  6  2  0  0  0  0
  2  5  2  0  0  0  0
  2 11  1  0  0  0  0
  2  4  1  0  0  0  0
  6 10  1  0  0  0  0
  7  8  2  0  0  0  0
  7 12  1  0  0  0  0
  8  9  1  0  0  0  0
  9 10  2  0  0  0  0
 10 11  1  0  0  0  0
 11 12  2  0  0  0  0
M  END
>  <CHROM.1>
6.03107155,17.52558395,3.71765385,-1.32674793,0.91330700,1.15871798

>  <Name>
ligand

>  <RI>
0

>  <Rbt.Current_Directory>
/home/itssahil/PROJECTS/Mol_Feturizer/Test_systems_manuscript/rnas/4lx5

>  <Rbt.Executable>
rbdock ($Id: //depot/dev/client3/rdock/2013.1/src/exe/rbdock.cxx#4 $)

>  <Rbt.Library>
libRbt.so (2013.1, Build901 2013/11/27)

>  <Rbt.Parameter_File>
/export/apps/rDock/src/rDock_2013.1_src/data/scripts/dock_solv.prm

>  <Rbt.Receptor>
prm/pocket_docking_5.prm

>  <SCORE>
-14.1079

>  <SCORE.INTER>
-14.1079

>  <SCORE.INTER.CONST>
1

>  <SCORE.INTER.POLAR>
0

>  <SCORE.INTER.ROT>
0

>  <SCORE.INTER.SOLV>
18.901

>  <SCORE.INTER.VDW>
-19.3056

>  <SCORE.INTER.norm>
-1.17566

>  <SCORE.INTRA>
0

>  <SCORE.INTRA.DIHEDRAL>
0

>  <SCORE.INTRA.DIHEDRAL.0>
0

>  <SCORE.INTRA.POLAR>
0

>  <SCORE.INTRA.POLAR.0>
0

>  <SCORE.INTRA.REPUL>
0

>  <SCORE.INTRA.REPUL.0>
0

>  <SCORE.INTRA.SOLV>
0

>  <SCORE.INTRA.SOLV.lig_0>
-48.1583

>  <SCORE.INTRA.VDW>
0

>  <SCORE.INTRA.VDW.0>
0

>  <SCORE.INTRA.norm>
0

>  <SCORE.RESTR>
0

>  <SCORE.RESTR.CAVITY>
0

>  <SCORE.RESTR.norm>
0

>  <SCORE.SYSTEM>
0

>  <SCORE.SYSTEM.CONST>
0

>  <SCORE.SYSTEM.DIHEDRAL>
0

>  <SCORE.SYSTEM.SOLV>
0

>  <SCORE.SYSTEM.norm>
0

>  <SCORE.heavy>
12

>  <SCORE.norm>
-1.17566

>  <RMSD>
0.418

$$$$
ligand
 OpenBabel02271912143D
libRbt.so/2013.1/901 2013/11/27
 12 13  0  0  0  0  0  0  0  0999 V2000
    6.6722   17.5667    1.7386 C   0  0  0  0  0  0  0  0  0  0  0  0
    5.3387   16.3060    3.1764 C   0  0  0  0  0  0  0  0  0  0  0  0
    7.1605   17.7652    0.5176 N   0  0  0  0  0  0  0  0  0  0  0  0
    4.5416   15.2661    3.4453 N   0  0  0  0  0  0  0  0  0  0  0  0
    5.8611   16.5091    1.9596 N   0  0  0  0  0  0  0  0  0  0  0  0
    6.9713   18.4372    2.7283 N   0  0  0  0  0  0  0  0  0  0  0  0
    5.4361   17.8650    6.5271 N   0  0  0  0  0  0  0  0  0  0  0  0
    6.2776   18.9555    6.2586 C   0  0  0  0  0  0  0  0  0  0  0  0
    6.8056   19.1381    4.9592 N   0  0  0  0  0  0  0  0  0  0  0  0
    6.4760   18.2685    3.9798 C   0  0  0  0  0  0  0  0  0  0  0  0
    5.6294   17.1833    4.2283 C   0  0  0  0  0  0  0  0  0  0  0  0
    5.0985   16.9637    5.4980 C   0  0  0  0  0  0  0  0  0  0  0  0
  1  3  1  0  0  0  0
  1  5  1  0  0  0  0
  1  6  2  0  0  0  0
  2  5  2  0  0  0  0
  2 11  1  0  0  0  0
  2  4  1  0  0  0  0
  6 10  1  0  0  0  0
  7  8  2  0  0  0  0
  7 12  1  0  0  0  0
  8  9  1  0  0  0  0
  9 10  2  0  0  0  0
 10 11  1  0  0  0  0
 11 12  2  0  0  0  0
M  END
>  <CHROM.1>
6.03058692,17.51701454,3.72107811,-1.33058945,0.91873616,1.16602037

>  <Name>
ligand

>  <RI>
0

>  <Rbt.Current_Directory>
/home/itssahil/PROJECTS/Mol_Feturizer/Test_systems_manuscript/rnas/4lx5

>  <Rbt.Executable>
rbdock ($Id: //depot/dev/client3/rdock/2013.1/src/exe/rbdock.cxx#4 $)

>  <Rbt.Library>
libRbt.so (2013.1, Build901 2013/11/27)

>  <Rbt.Parameter_File>
/export/apps/rDock/src/rDock_2013.1_src/data/scripts/dock_solv.prm

>  <Rbt.Receptor>
prm/pocket_docking_6.prm

>  <SCORE>
-14.1049

>  <SCORE.INTER>
-14.1049

>  <SCORE.INTER.CONST>
1

>  <SCORE.INTER.POLAR>
0

>  <SCORE.INTER.ROT>
0

>  <SCORE.INTER.SOLV>
18.9358

>  <SCORE.INTER.VDW>
-19.3152

>  <SCORE.INTER.norm>
-1.17541

>  <SCORE.INTRA>
0

>  <SCORE.INTRA.DIHEDRAL>
0

>  <SCORE.INTRA.DIHEDRAL.0>
0

>  <SCORE.INTRA.POLAR>
0

>  <SCORE.INTRA.POLAR.0>
0

>  <SCORE.INTRA.REPUL>
0

>  <SCORE.INTRA.REPUL.0>
0

>  <SCORE.INTRA.SOLV>
0

>  <SCORE.INTRA.SOLV.lig_0>
-48.1583

>  <SCORE.INTRA.VDW>
0

>  <SCORE.INTRA.VDW.0>
0

>  <SCORE.INTRA.norm>
0

>  <SCORE.RESTR>
0

>  <SCORE.RESTR.CAVITY>
0

>  <SCORE.RESTR.norm>
0

>  <SCORE.SYSTEM>
0

>  <SCORE.SYSTEM.CONST>
0

>  <SCORE.SYSTEM.DIHEDRAL>
0

>  <SCORE.SYSTEM.SOLV>
0

>  <SCORE.SYSTEM.norm>
0

>  <SCORE.heavy>
12

>  <SCORE.norm>
-1.17541

>  <RMSD>
0.418

$$$$
ligand
 OpenBabel02271912143D
libRbt.so/2013.1/901 2013/11/27
 12 13  0  0  0  0  0  0  0  0999 V2000
    6.6771   17.5482    1.7406 C   0  0  0  0  0  0  0  0  0  0  0  0
    5.3336   16.3019    3.1817 C   0  0  0  0  0  0  0  0  0  0  0  0
    7.1724   17.7355    0.5206 N   0  0  0  0  0  0  0  0  0  0  0  0
    4.5333   15.2657    3.4551 N   0  0  0  0  0  0  0  0  0  0  0  0
    5.8631   16.4938    1.9662 N   0  0  0  0  0  0  0  0  0  0  0  0
    6.9724   18.4265    2.7246 N   0  0  0  0  0  0  0  0  0  0  0  0
    5.4156   17.8891    6.5196 N   0  0  0  0  0  0  0  0  0  0  0  0
    6.2604   18.9759    6.2465 C   0  0  0  0  0  0  0  0  0  0  0  0
    6.7959   19.1465    4.9484 N   0  0  0  0  0  0  0  0  0  0  0  0
    6.4700   18.2693    3.9747 C   0  0  0  0  0  0  0  0  0  0  0  0
    5.6202   17.1876    4.2278 C   0  0  0  0  0  0  0  0  0  0  0  0
    5.0821   16.9798    5.4964 C   0  0  0  0  0  0  0  0  0  0  0  0
  1  3  1  0  0  0  0
  1  5  1  0  0  0  0
  1  6  2  0  0  0  0
  2  5  2  0  0  0  0
  2 11  1  0  0  0  0
  2  4  1  0  0  0  0
  6 10  1  0  0  0  0
  7  8  2  0  0  0  0
  7 12  1  0  0  0  0
  8  9  1  0  0  0  0
  9 10  2  0  0  0  0
 10 11  1  0  0  0  0
 11 12  2  0  0  0  0
M  END
>  <CHROM.1>
6.02470954,17.51637640,3.71992090,-1.32353196,0.91498340,1.15194957

>  <Name>
ligand

>  <RI>
0

>  <Rbt.Current_Directory>
/home/itssahil/PROJECTS/Mol_Feturizer/Test_systems_manuscript/rnas/4lx5

>  <Rbt.Executable>
rbdock ($Id: //depot/dev/client3/rdock/2013.1/src/exe/rbdock.cxx#4 $)

>  <Rbt.Library>
libRbt.so (2013.1, Build901 2013/11/27)

>  <Rbt.Parameter_File>
/export/apps/rDock/src/rDock_2013.1_src/data/scripts/dock_solv.prm

>  <Rbt.Receptor>
prm/blind_docking_80.prm

>  <SCORE>
-14.1459

>  <SCORE.INTER>
-14.1459

>  <SCORE.INTER.CONST>
1

>  <SCORE.INTER.POLAR>
0

>  <SCORE.INTER.ROT>
0

>  <SCORE.INTER.SOLV>
18.9021

>  <SCORE.INTER.VDW>
-19.3313

>  <SCORE.INTER.norm>
-1.17883

>  <SCORE.INTRA>
0

>  <SCORE.INTRA.DIHEDRAL>
0

>  <SCORE.INTRA.DIHEDRAL.0>
0

>  <SCORE.INTRA.POLAR>
0

>  <SCORE.INTRA.POLAR.0>
0

>  <SCORE.INTRA.REPUL>
0

>  <SCORE.INTRA.REPUL.0>
0

>  <SCORE.INTRA.SOLV>
0

>  <SCORE.INTRA.SOLV.lig_0>
-48.1583

>  <SCORE.INTRA.VDW>
0

>  <SCORE.INTRA.VDW.0>
0

>  <SCORE.INTRA.norm>
0

>  <SCORE.RESTR>
0

>  <SCORE.RESTR.CAVITY>
0

>  <SCORE.RESTR.norm>
0

>  <SCORE.SYSTEM>
0

>  <SCORE.SYSTEM.CONST>
0

>  <SCORE.SYSTEM.DIHEDRAL>
0

>  <SCORE.SYSTEM.SOLV>
0

>  <SCORE.SYSTEM.norm>
0

>  <SCORE.heavy>
12

>  <SCORE.norm>
-1.17883

>  <RMSD>
0.419

$$$$
ligand
 OpenBabel02271912143D
libRbt.so/2013.1/901 2013/11/27
 12 13  0  0  0  0  0  0  0  0999 V2000
    6.6757   17.5504    1.7402 C   0  0  0  0  0  0  0  0  0  0  0  0
    5.3315   16.3046    3.1811 C   0  0  0  0  0  0  0  0  0  0  0  0
    7.1707   17.7380    0.5201 N   0  0  0  0  0  0  0  0  0  0  0  0
    4.5302   15.2691    3.4541 N   0  0  0  0  0  0  0  0  0  0  0  0
    5.8606   16.4968    1.9654 N   0  0  0  0  0  0  0  0  0  0  0  0
    6.9722   18.4278    2.7246 N   0  0  0  0  0  0  0  0  0  0  0  0
    5.4164   17.8897    6.5199 N   0  0  0  0  0  0  0  0  0  0  0  0
    6.2623   18.9758    6.2471 C   0  0  0  0  0  0  0  0  0  0  0  0
    6.7973   19.1467    4.9490 N   0  0  0  0  0  0  0  0  0  0  0  0
    6.4702   18.2704    3.9748 C   0  0  0  0  0  0  0  0  0  0  0  0
    5.6194   17.1894    4.2276 C   0  0  0  0  0  0  0  0  0  0  0  0
    5.0815   16.9813    5.4963 C   0  0  0  0  0  0  0  0  0  0  0  0
  1  3  1  0  0  0  0
  1  5  1  0  0  0  0
  1  6  2  0  0  0  0
  2  5  2  0  0  0  0
  2 11  1  0  0  0  0
  2  4  1  0  0  0  0
  6 10  1  0  0  0  0
  7  8  2  0  0  0  0
  7 12  1  0  0  0  0
  8  9  1  0  0  0  0
  9 10  2  0  0  0  0
 10 11  1  0  0  0  0
 11 12  2  0  0  0  0
M  END
>  <CHROM.1>
6.02401676,17.51807045,3.71975130,-1.32480879,0.91421785,1.15358203

>  <Name>
ligand

>  <RI>
0

>  <Rbt.Current_Directory>
/home/itssahil/PROJECTS/Mol_Feturizer/Test_systems_manuscript/rnas/4lx5

>  <Rbt.Executable>
rbdock ($Id: //depot/dev/client3/rdock/2013.1/src/exe/rbdock.cxx#4 $)

>  <Rbt.Library>
libRbt.so (2013.1, Build901 2013/11/27)

>  <Rbt.Parameter_File>
/export/apps/rDock/src/rDock_2013.1_src/data/scripts/dock_solv.prm

>  <Rbt.Receptor>
prm/blind_docking_80.prm

>  <SCORE>
-14.146

>  <SCORE.INTER>
-14.146

>  <SCORE.INTER.CONST>
1

>  <SCORE.INTER.POLAR>
0

>  <SCORE.INTER.ROT>
0

>  <SCORE.INTER.SOLV>
18.8886

>  <SCORE.INTER.VDW>
-19.3269

>  <SCORE.INTER.norm>
-1.17884

>  <SCORE.INTRA>
0

>  <SCORE.INTRA.DIHEDRAL>
0

>  <SCORE.INTRA.DIHEDRAL.0>
0

>  <SCORE.INTRA.POLAR>
0

>  <SCORE.INTRA.POLAR.0>
0

>  <SCORE.INTRA.REPUL>
0

>  <SCORE.INTRA.REPUL.0>
0

>  <SCORE.INTRA.SOLV>
0

>  <SCORE.INTRA.SOLV.lig_0>
-48.1583

>  <SCORE.INTRA.VDW>
0

>  <SCORE.INTRA.VDW.0>
0

>  <SCORE.INTRA.norm>
0

>  <SCORE.RESTR>
0

>  <SCORE.RESTR.CAVITY>
0

>  <SCORE.RESTR.norm>
0

>  <SCORE.SYSTEM>
0

>  <SCORE.SYSTEM.CONST>
0

>  <SCORE.SYSTEM.DIHEDRAL>
0

>  <SCORE.SYSTEM.SOLV>
0

>  <SCORE.SYSTEM.norm>
0

>  <SCORE.heavy>
12

>  <SCORE.norm>
-1.17884

>  <RMSD>
0.419

$$$$
ligand
 OpenBabel02271912143D
libRbt.so/2013.1/901 2013/11/27
 12 13  0  0  0  0  0  0  0  0999 V2000
    6.6844   17.5510    1.7479 C   0  0  0  0  0  0  0  0  0  0  0  0
    5.3371   16.2992    3.1806 C   0  0  0  0  0  0  0  0  0  0  0  0
    7.1798   17.7453    0.5291 N   0  0  0  0  0  0  0  0  0  0  0  0
    4.5333   15.2638    3.4469 N   0  0  0  0  0  0  0  0  0  0  0  0
    5.8667   16.4979    1.9663 N   0  0  0  0  0  0  0  0  0  0  0  0
    6.9830   18.4213    2.7380 N   0  0  0  0  0  0  0  0  0  0  0  0
    5.4258   17.8622    6.5297 N   0  0  0  0  0  0  0  0  0  0  0  0
    6.2744   18.9480    6.2640 C   0  0  0  0  0  0  0  0  0  0  0  0
    6.8098   19.1260    4.9670 N   0  0  0  0  0  0  0  0  0  0  0  0
    6.4806   18.2569    3.9871 C   0  0  0  0  0  0  0  0  0  0  0  0
    5.6272   17.1764    4.2329 C   0  0  0  0  0  0  0  0  0  0  0  0
    5.0888   16.9614    5.5002 C   0  0  0  0  0  0  0  0  0  0  0  0
  1  3  1  0  0  0  0
  1  5  1  0  0  0  0
  1  6  2  0  0  0  0
  2  5  2  0  0  0  0
  2 11  1  0  0  0  0
  2  4  1  0  0  0  0
  6 10  1  0  0  0  0
  7  8  2  0  0  0  0
  7 12  1  0  0  0  0
  8  9  1  0  0  0  0
  9 10  2  0  0  0  0
 10 11  1  0  0  0  0
 11 12  2  0  0  0  0
M  END
>  <CHROM.1>
6.03259107,17.50736517,3.72720677,-1.32640511,0.91197071,1.16135991

>  <Name>
ligand

>  <RI>
0

>  <Rbt.Current_Directory>
/home/itssahil/PROJECTS/Mol_Feturizer/Test_systems_manuscript/rnas/4lx5

>  <Rbt.Executable>
rbdock ($Id: //depot/dev/client3/rdock/2013.1/src/exe/rbdock.cxx#4 $)

>  <Rbt.Library>
libRbt.so (2013.1, Build901 2013/11/27)

>  <Rbt.Parameter_File>
/export/apps/rDock/src/rDock_2013.1_src/data/scripts/dock_solv.prm

>  <Rbt.Receptor>
prm/pocket_docking_8.prm

>  <SCORE>
-14.0986

>  <SCORE.INTER>
-14.0986

>  <SCORE.INTER.CONST>
1

>  <SCORE.INTER.POLAR>
0

>  <SCORE.INTER.ROT>
0

>  <SCORE.INTER.SOLV>
18.9094

>  <SCORE.INTER.VDW>
-19.3022

>  <SCORE.INTER.norm>
-1.17488

>  <SCORE.INTRA>
0

>  <SCORE.INTRA.DIHEDRAL>
0

>  <SCORE.INTRA.DIHEDRAL.0>
0

>  <SCORE.INTRA.POLAR>
0

>  <SCORE.INTRA.POLAR.0>
0

>  <SCORE.INTRA.REPUL>
0

>  <SCORE.INTRA.REPUL.0>
0

>  <SCORE.INTRA.SOLV>
0

>  <SCORE.INTRA.SOLV.lig_0>
-48.1583

>  <SCORE.INTRA.VDW>
0

>  <SCORE.INTRA.VDW.0>
0

>  <SCORE.INTRA.norm>
0

>  <SCORE.RESTR>
0

>  <SCORE.RESTR.CAVITY>
0

>  <SCORE.RESTR.norm>
0

>  <SCORE.SYSTEM>
0

>  <SCORE.SYSTEM.CONST>
0

>  <SCORE.SYSTEM.DIHEDRAL>
0

>  <SCORE.SYSTEM.SOLV>
0

>  <SCORE.SYSTEM.norm>
0

>  <SCORE.heavy>
12

>  <SCORE.norm>
-1.17488

>  <RMSD>
0.419

$$$$
ligand
 OpenBabel02271912143D
libRbt.so/2013.1/901 2013/11/27
 12 13  0  0  0  0  0  0  0  0999 V2000
    6.6852   17.5604    1.7461 C   0  0  0  0  0  0  0  0  0  0  0  0
    5.3341   16.3117    3.1780 C   0  0  0  0  0  0  0  0  0  0  0  0
    7.1843   17.7518    0.5283 N   0  0  0  0  0  0  0  0  0  0  0  0
    4.5299   15.2767    3.4445 N   0  0  0  0  0  0  0  0  0  0  0  0
    5.8674   16.5075    1.9647 N   0  0  0  0  0  0  0  0  0  0  0  0
    6.9805   18.4333    2.7348 N   0  0  0  0  0  0  0  0  0  0  0  0
    5.4120   17.8835    6.5233 N   0  0  0  0  0  0  0  0  0  0  0  0
    6.2609   18.9689    6.2573 C   0  0  0  0  0  0  0  0  0  0  0  0
    6.8002   19.1438    4.9615 N   0  0  0  0  0  0  0  0  0  0  0  0
    6.4743   18.2720    3.9829 C   0  0  0  0  0  0  0  0  0  0  0  0
    5.6206   17.1918    4.2288 C   0  0  0  0  0  0  0  0  0  0  0  0
    5.0785   16.9798    5.4951 C   0  0  0  0  0  0  0  0  0  0  0  0
  1  3  1  0  0  0  0
  1  5  1  0  0  0  0
  1  6  2  0  0  0  0
  2  5  2  0  0  0  0
  2 11  1  0  0  0  0
  2  4  1  0  0  0  0
  6 10  1  0  0  0  0
  7  8  2  0  0  0  0
  7 12  1  0  0  0  0
  8  9  1  0  0  0  0
  9 10  2  0  0  0  0
 10 11  1  0  0  0  0
 11 12  2  0  0  0  0
M  END
>  <CHROM.1>
6.02744255,17.52157934,3.72352959,-1.32158340,0.91115702,1.15495039

>  <Name>
ligand

>  <RI>
0

>  <Rbt.Current_Directory>
/home/itssahil/PROJECTS/Mol_Feturizer/Test_systems_manuscript/rnas/4lx5

>  <Rbt.Executable>
rbdock ($Id: //depot/dev/client3/rdock/2013.1/src/exe/rbdock.cxx#4 $)

>  <Rbt.Library>
libRbt.so (2013.1, Build901 2013/11/27)

>  <Rbt.Parameter_File>
/export/apps/rDock/src/rDock_2013.1_src/data/scripts/dock_solv.prm

>  <Rbt.Receptor>
prm/blind_docking_60.prm

>  <SCORE>
-14.1085

>  <SCORE.INTER>
-14.1085

>  <SCORE.INTER.CONST>
1

>  <SCORE.INTER.POLAR>
0

>  <SCORE.INTER.ROT>
0

>  <SCORE.INTER.SOLV>
18.8952

>  <SCORE.INTER.VDW>
-19.3041

>  <SCORE.INTER.norm>
-1.17571

>  <SCORE.INTRA>
0

>  <SCORE.INTRA.DIHEDRAL>
0

>  <SCORE.INTRA.DIHEDRAL.0>
0

>  <SCORE.INTRA.POLAR>
0

>  <SCORE.INTRA.POLAR.0>
0

>  <SCORE.INTRA.REPUL>
0

>  <SCORE.INTRA.REPUL.0>
0

>  <SCORE.INTRA.SOLV>
0

>  <SCORE.INTRA.SOLV.lig_0>
-48.1583

>  <SCORE.INTRA.VDW>
0

>  <SCORE.INTRA.VDW.0>
0

>  <SCORE.INTRA.norm>
0

>  <SCORE.RESTR>
0

>  <SCORE.RESTR.CAVITY>
0

>  <SCORE.RESTR.norm>
0

>  <SCORE.SYSTEM>
0

>  <SCORE.SYSTEM.CONST>
0

>  <SCORE.SYSTEM.DIHEDRAL>
0

>  <SCORE.SYSTEM.SOLV>
0

>  <SCORE.SYSTEM.norm>
0

>  <SCORE.heavy>
12

>  <SCORE.norm>
-1.17571

>  <RMSD>
0.421

$$$$
ligand
 OpenBabel02271912143D
libRbt.so/2013.1/901 2013/11/27
 12 13  0  0  0  0  0  0  0  0999 V2000
    6.6673   17.5479    1.7361 C   0  0  0  0  0  0  0  0  0  0  0  0
    5.3281   16.3049    3.1840 C   0  0  0  0  0  0  0  0  0  0  0  0
    7.1579   17.7333    0.5139 N   0  0  0  0  0  0  0  0  0  0  0  0
    4.5277   15.2699    3.4617 N   0  0  0  0  0  0  0  0  0  0  0  0
    5.8529   16.4948    1.9661 N   0  0  0  0  0  0  0  0  0  0  0  0
    6.9674   18.4271    2.7178 N   0  0  0  0  0  0  0  0  0  0  0  0
    5.4252   17.8960    6.5196 N   0  0  0  0  0  0  0  0  0  0  0  0
    6.2702   18.9815    6.2418 C   0  0  0  0  0  0  0  0  0  0  0  0
    6.8006   19.1500    4.9415 N   0  0  0  0  0  0  0  0  0  0  0  0
    6.4699   18.2719    3.9701 C   0  0  0  0  0  0  0  0  0  0  0  0
    5.6199   17.1915    4.2278 C   0  0  0  0  0  0  0  0  0  0  0  0
    5.0866   16.9858    5.4988 C   0  0  0  0  0  0  0  0  0  0  0  0
  1  3  1  0  0  0  0
  1  5  1  0  0  0  0
  1  6  2  0  0  0  0
  2  5  2  0  0  0  0
  2 11  1  0  0  0  0
  2  4  1  0  0  0  0
  6 10  1  0  0  0  0
  7  8  2  0  0  0  0
  7 12  1  0  0  0  0
  8  9  1  0  0  0  0
  9 10  2  0  0  0  0
 10 11  1  0  0  0  0
 11 12  2  0  0  0  0
M  END
>  <CHROM.1>
6.02272347,17.51920723,3.71797763,-1.33026529,0.91557013,1.15610142

>  <Name>
ligand

>  <RI>
0

>  <Rbt.Current_Directory>
/home/itssahil/PROJECTS/Mol_Feturizer/Test_systems_manuscript/rnas/4lx5

>  <Rbt.Executable>
rbdock ($Id: //depot/dev/client3/rdock/2013.1/src/exe/rbdock.cxx#4 $)

>  <Rbt.Library>
libRbt.so (2013.1, Build901 2013/11/27)

>  <Rbt.Parameter_File>
/export/apps/rDock/src/rDock_2013.1_src/data/scripts/dock_solv.prm

>  <Rbt.Receptor>
prm/pocket_docking_4.prm

>  <SCORE>
-14.1479

>  <SCORE.INTER>
-14.1479

>  <SCORE.INTER.CONST>
1

>  <SCORE.INTER.POLAR>
0

>  <SCORE.INTER.ROT>
0

>  <SCORE.INTER.SOLV>
18.8667

>  <SCORE.INTER.VDW>
-19.3208

>  <SCORE.INTER.norm>
-1.17899

>  <SCORE.INTRA>
0

>  <SCORE.INTRA.DIHEDRAL>
0

>  <SCORE.INTRA.DIHEDRAL.0>
0

>  <SCORE.INTRA.POLAR>
0

>  <SCORE.INTRA.POLAR.0>
0

>  <SCORE.INTRA.REPUL>
0

>  <SCORE.INTRA.REPUL.0>
0

>  <SCORE.INTRA.SOLV>
0

>  <SCORE.INTRA.SOLV.lig_0>
-48.1583

>  <SCORE.INTRA.VDW>
0

>  <SCORE.INTRA.VDW.0>
0

>  <SCORE.INTRA.norm>
0

>  <SCORE.RESTR>
0

>  <SCORE.RESTR.CAVITY>
0

>  <SCORE.RESTR.norm>
0

>  <SCORE.SYSTEM>
0

>  <SCORE.SYSTEM.CONST>
0

>  <SCORE.SYSTEM.DIHEDRAL>
0

>  <SCORE.SYSTEM.SOLV>
0

>  <SCORE.SYSTEM.norm>
0

>  <SCORE.heavy>
12

>  <SCORE.norm>
-1.17899

>  <RMSD>
0.421

$$$$
ligand
 OpenBabel02271912143D
libRbt.so/2013.1/901 2013/11/27
 12 13  0  0  0  0  0  0  0  0999 V2000
    6.6779   17.5470    1.7411 C   0  0  0  0  0  0  0  0  0  0  0  0
    5.3277   16.3087    3.1828 C   0  0  0  0  0  0  0  0  0  0  0  0
    7.1732   17.7317    0.5207 N   0  0  0  0  0  0  0  0  0  0  0  0
    4.5210   15.2775    3.4563 N   0  0  0  0  0  0  0  0  0  0  0  0
    5.8573   16.4978    1.9668 N   0  0  0  0  0  0  0  0  0  0  0  0
    6.9797   18.4229    2.7251 N   0  0  0  0  0  0  0  0  0  0  0  0
    5.4230   17.8936    6.5214 N   0  0  0  0  0  0  0  0  0  0  0  0
    6.2746   18.9751    6.2480 C   0  0  0  0  0  0  0  0  0  0  0  0
    6.8099   19.1429    4.9495 N   0  0  0  0  0  0  0  0  0  0  0  0
    6.4775   18.2683    3.9757 C   0  0  0  0  0  0  0  0  0  0  0  0
    5.6210   17.1920    4.2290 C   0  0  0  0  0  0  0  0  0  0  0  0
    5.0827   16.9869    5.4980 C   0  0  0  0  0  0  0  0  0  0  0  0
  1  3  1  0  0  0  0
  1  5  1  0  0  0  0
  1  6  2  0  0  0  0
  2  5  2  0  0  0  0
  2 11  1  0  0  0  0
  2  4  1  0  0  0  0
  6 10  1  0  0  0  0
  7  8  2  0  0  0  0
  7 12  1  0  0  0  0
  8  9  1  0  0  0  0
  9 10  2  0  0  0  0
 10 11  1  0  0  0  0
 11 12  2  0  0  0  0
M  END
>  <CHROM.1>
6.02711928,17.51837032,3.72093648,-1.32919125,0.90947979,1.15693295

>  <Name>
ligand

>  <RI>
0

>  <Rbt.Current_Directory>
/home/itssahil/PROJECTS/Mol_Feturizer/Test_systems_manuscript/rnas/4lx5

>  <Rbt.Executable>
rbdock ($Id: //depot/dev/client3/rdock/2013.1/src/exe/rbdock.cxx#4 $)

>  <Rbt.Library>
libRbt.so (2013.1, Build901 2013/11/27)

>  <Rbt.Parameter_File>
/export/apps/rDock/src/rDock_2013.1_src/data/scripts/dock_solv.prm

>  <Rbt.Receptor>
prm/pocket_docking_4.prm

>  <SCORE>
-14.1446

>  <SCORE.INTER>
-14.1446

>  <SCORE.INTER.CONST>
1

>  <SCORE.INTER.POLAR>
0

>  <SCORE.INTER.ROT>
0

>  <SCORE.INTER.SOLV>
18.8424

>  <SCORE.INTER.VDW>
-19.3106

>  <SCORE.INTER.norm>
-1.17872

>  <SCORE.INTRA>
0

>  <SCORE.INTRA.DIHEDRAL>
0

>  <SCORE.INTRA.DIHEDRAL.0>
0

>  <SCORE.INTRA.POLAR>
0

>  <SCORE.INTRA.POLAR.0>
0

>  <SCORE.INTRA.REPUL>
0

>  <SCORE.INTRA.REPUL.0>
0

>  <SCORE.INTRA.SOLV>
0

>  <SCORE.INTRA.SOLV.lig_0>
-48.1583

>  <SCORE.INTRA.VDW>
0

>  <SCORE.INTRA.VDW.0>
0

>  <SCORE.INTRA.norm>
0

>  <SCORE.RESTR>
0

>  <SCORE.RESTR.CAVITY>
0

>  <SCORE.RESTR.norm>
0

>  <SCORE.SYSTEM>
0

>  <SCORE.SYSTEM.CONST>
0

>  <SCORE.SYSTEM.DIHEDRAL>
0

>  <SCORE.SYSTEM.SOLV>
0

>  <SCORE.SYSTEM.norm>
0

>  <SCORE.heavy>
12

>  <SCORE.norm>
-1.17872

>  <RMSD>
0.421

$$$$
ligand
 OpenBabel02271912143D
libRbt.so/2013.1/901 2013/11/27
 12 13  0  0  0  0  0  0  0  0999 V2000
    6.6707   17.5514    1.7399 C   0  0  0  0  0  0  0  0  0  0  0  0
    5.3304   16.3041    3.1831 C   0  0  0  0  0  0  0  0  0  0  0  0
    7.1640   17.7391    0.5191 N   0  0  0  0  0  0  0  0  0  0  0  0
    4.5314   15.2673    3.4577 N   0  0  0  0  0  0  0  0  0  0  0  0
    5.8579   16.4964    1.9667 N   0  0  0  0  0  0  0  0  0  0  0  0
    6.9667   18.4300    2.7233 N   0  0  0  0  0  0  0  0  0  0  0  0
    5.4161   17.8917    6.5208 N   0  0  0  0  0  0  0  0  0  0  0  0
    6.2596   18.9791    6.2462 C   0  0  0  0  0  0  0  0  0  0  0  0
    6.7929   19.1501    4.9474 N   0  0  0  0  0  0  0  0  0  0  0  0
    6.4663   18.2725    3.9742 C   0  0  0  0  0  0  0  0  0  0  0  0
    5.6179   17.1902    4.2287 C   0  0  0  0  0  0  0  0  0  0  0  0
    5.0818   16.9819    5.4981 C   0  0  0  0  0  0  0  0  0  0  0  0
  1  3  1  0  0  0  0
  1  5  1  0  0  0  0
  1  6  2  0  0  0  0
  2  5  2  0  0  0  0
  2 11  1  0  0  0  0
  2  4  1  0  0  0  0
  6 10  1  0  0  0  0
  7  8  2  0  0  0  0
  7 12  1  0  0  0  0
  8  9  1  0  0  0  0
  9 10  2  0  0  0  0
 10 11  1  0  0  0  0
 11 12  2  0  0  0  0
M  END
>  <CHROM.1>
6.02129354,17.51922139,3.72016097,-1.32524979,0.91636933,1.15324344

>  <Name>
ligand

>  <RI>
0

>  <Rbt.Current_Directory>
/home/itssahil/PROJECTS/Mol_Feturizer/Test_systems_manuscript/rnas/4lx5

>  <Rbt.Executable>
rbdock ($Id: //depot/dev/client3/rdock/2013.1/src/exe/rbdock.cxx#4 $)

>  <Rbt.Library>
libRbt.so (2013.1, Build901 2013/11/27)

>  <Rbt.Parameter_File>
/export/apps/rDock/src/rDock_2013.1_src/data/scripts/dock_solv.prm

>  <Rbt.Receptor>
prm/pocket_docking_5.prm

>  <SCORE>
-14.1475

>  <SCORE.INTER>
-14.1475

>  <SCORE.INTER.CONST>
1

>  <SCORE.INTER.POLAR>
0

>  <SCORE.INTER.ROT>
0

>  <SCORE.INTER.SOLV>
18.892

>  <SCORE.INTER.VDW>
-19.329

>  <SCORE.INTER.norm>
-1.17896

>  <SCORE.INTRA>
0

>  <SCORE.INTRA.DIHEDRAL>
0

>  <SCORE.INTRA.DIHEDRAL.0>
0

>  <SCORE.INTRA.POLAR>
0

>  <SCORE.INTRA.POLAR.0>
0

>  <SCORE.INTRA.REPUL>
0

>  <SCORE.INTRA.REPUL.0>
0

>  <SCORE.INTRA.SOLV>
0

>  <SCORE.INTRA.SOLV.lig_0>
-48.1583

>  <SCORE.INTRA.VDW>
0

>  <SCORE.INTRA.VDW.0>
0

>  <SCORE.INTRA.norm>
0

>  <SCORE.RESTR>
0

>  <SCORE.RESTR.CAVITY>
0

>  <SCORE.RESTR.norm>
0

>  <SCORE.SYSTEM>
0

>  <SCORE.SYSTEM.CONST>
0

>  <SCORE.SYSTEM.DIHEDRAL>
0

>  <SCORE.SYSTEM.SOLV>
0

>  <SCORE.SYSTEM.norm>
0

>  <SCORE.heavy>
12

>  <SCORE.norm>
-1.17896

>  <RMSD>
0.421

$$$$
ligand
 OpenBabel02271912143D
libRbt.so/2013.1/901 2013/11/27
 12 13  0  0  0  0  0  0  0  0999 V2000
    6.6688   17.5371    1.7388 C   0  0  0  0  0  0  0  0  0  0  0  0
    5.3268   16.2974    3.1870 C   0  0  0  0  0  0  0  0  0  0  0  0
    7.1603   17.7207    0.5167 N   0  0  0  0  0  0  0  0  0  0  0  0
    4.5245   15.2640    3.4651 N   0  0  0  0  0  0  0  0  0  0  0  0
    5.8525   16.4855    1.9692 N   0  0  0  0  0  0  0  0  0  0  0  0
    6.9699   18.4165    2.7200 N   0  0  0  0  0  0  0  0  0  0  0  0
    5.4248   17.8908    6.5215 N   0  0  0  0  0  0  0  0  0  0  0  0
    6.2718   18.9747    6.2433 C   0  0  0  0  0  0  0  0  0  0  0  0
    6.8032   19.1413    4.9431 N   0  0  0  0  0  0  0  0  0  0  0  0
    6.4714   18.2631    3.9721 C   0  0  0  0  0  0  0  0  0  0  0  0
    5.6196   17.1844    4.2303 C   0  0  0  0  0  0  0  0  0  0  0  0
    5.0852   16.9804    5.5012 C   0  0  0  0  0  0  0  0  0  0  0  0
  1  3  1  0  0  0  0
  1  5  1  0  0  0  0
  1  6  2  0  0  0  0
  2  5  2  0  0  0  0
  2 11  1  0  0  0  0
  2  4  1  0  0  0  0
  6 10  1  0  0  0  0
  7  8  2  0  0  0  0
  7 12  1  0  0  0  0
  8  9  1  0  0  0  0
  9 10  2  0  0  0  0
 10 11  1  0  0  0  0
 11 12  2  0  0  0  0
M  END
>  <CHROM.1>
6.02316860,17.51097832,3.72039658,-1.33062601,0.91382282,1.15564630

>  <Name>
ligand

>  <RI>
0

>  <Rbt.Current_Directory>
/home/itssahil/PROJECTS/Mol_Feturizer/Test_systems_manuscript/rnas/4lx5

>  <Rbt.Executable>
rbdock ($Id: //depot/dev/client3/rdock/2013.1/src/exe/rbdock.cxx#4 $)

>  <Rbt.Library>
libRbt.so (2013.1, Build901 2013/11/27)

>  <Rbt.Parameter_File>
/export/apps/rDock/src/rDock_2013.1_src/data/scripts/dock_solv.prm

>  <Rbt.Receptor>
prm/pocket_docking_8.prm

>  <SCORE>
-14.1422

>  <SCORE.INTER>
-14.1422

>  <SCORE.INTER.CONST>
1

>  <SCORE.INTER.POLAR>
0

>  <SCORE.INTER.ROT>
0

>  <SCORE.INTER.SOLV>
18.8572

>  <SCORE.INTER.VDW>
-19.3139

>  <SCORE.INTER.norm>
-1.17852

>  <SCORE.INTRA>
0

>  <SCORE.INTRA.DIHEDRAL>
0

>  <SCORE.INTRA.DIHEDRAL.0>
0

>  <SCORE.INTRA.POLAR>
0

>  <SCORE.INTRA.POLAR.0>
0

>  <SCORE.INTRA.REPUL>
0

>  <SCORE.INTRA.REPUL.0>
0

>  <SCORE.INTRA.SOLV>
0

>  <SCORE.INTRA.SOLV.lig_0>
-48.1583

>  <SCORE.INTRA.VDW>
0

>  <SCORE.INTRA.VDW.0>
0

>  <SCORE.INTRA.norm>
0

>  <SCORE.RESTR>
0

>  <SCORE.RESTR.CAVITY>
0

>  <SCORE.RESTR.norm>
0

>  <SCORE.SYSTEM>
0

>  <SCORE.SYSTEM.CONST>
0

>  <SCORE.SYSTEM.DIHEDRAL>
0

>  <SCORE.SYSTEM.SOLV>
0

>  <SCORE.SYSTEM.norm>
0

>  <SCORE.heavy>
12

>  <SCORE.norm>
-1.17852

>  <RMSD>
0.421

$$$$
ligand
 OpenBabel02271912143D
libRbt.so/2013.1/901 2013/11/27
 12 13  0  0  0  0  0  0  0  0999 V2000
    6.6860   17.5543    1.7494 C   0  0  0  0  0  0  0  0  0  0  0  0
    5.3336   16.3058    3.1802 C   0  0  0  0  0  0  0  0  0  0  0  0
    7.1886   17.7437    0.5327 N   0  0  0  0  0  0  0  0  0  0  0  0
    4.5314   15.2693    3.4469 N   0  0  0  0  0  0  0  0  0  0  0  0
    5.8704   16.4998    1.9682 N   0  0  0  0  0  0  0  0  0  0  0  0
    6.9756   18.4308    2.7367 N   0  0  0  0  0  0  0  0  0  0  0  0
    5.3960   17.8871    6.5214 N   0  0  0  0  0  0  0  0  0  0  0  0
    6.2427   18.9741    6.2552 C   0  0  0  0  0  0  0  0  0  0  0  0
    6.7859   19.1469    4.9607 N   0  0  0  0  0  0  0  0  0  0  0  0
    6.4657   18.2715    3.9835 C   0  0  0  0  0  0  0  0  0  0  0  0
    5.6142   17.1896    4.2296 C   0  0  0  0  0  0  0  0  0  0  0  0
    5.0684   16.9796    5.4946 C   0  0  0  0  0  0  0  0  0  0  0  0
  1  3  1  0  0  0  0
  1  5  1  0  0  0  0
  1  6  2  0  0  0  0
  2  5  2  0  0  0  0
  2 11  1  0  0  0  0
  2  4  1  0  0  0  0
  6 10  1  0  0  0  0
  7  8  2  0  0  0  0
  7 12  1  0  0  0  0
  8  9  1  0  0  0  0
  9 10  2  0  0  0  0
 10 11  1  0  0  0  0
 11 12  2  0  0  0  0
M  END
>  <CHROM.1>
6.02175271,17.51913696,3.72473212,-1.31476643,0.91231506,1.14679311

>  <Name>
ligand

>  <RI>
0

>  <Rbt.Current_Directory>
/home/itssahil/PROJECTS/Mol_Feturizer/Test_systems_manuscript/rnas/4lx5

>  <Rbt.Executable>
rbdock ($Id: //depot/dev/client3/rdock/2013.1/src/exe/rbdock.cxx#4 $)

>  <Rbt.Library>
libRbt.so (2013.1, Build901 2013/11/27)

>  <Rbt.Parameter_File>
/export/apps/rDock/src/rDock_2013.1_src/data/scripts/dock_solv.prm

>  <Rbt.Receptor>
prm/pocket_docking_5.prm

>  <SCORE>
-14.1405

>  <SCORE.INTER>
-14.1405

>  <SCORE.INTER.CONST>
1

>  <SCORE.INTER.POLAR>
0

>  <SCORE.INTER.ROT>
0

>  <SCORE.INTER.SOLV>
18.9105

>  <SCORE.INTER.VDW>
-19.3305

>  <SCORE.INTER.norm>
-1.17837

>  <SCORE.INTRA>
0

>  <SCORE.INTRA.DIHEDRAL>
0

>  <SCORE.INTRA.DIHEDRAL.0>
0

>  <SCORE.INTRA.POLAR>
0

>  <SCORE.INTRA.POLAR.0>
0

>  <SCORE.INTRA.REPUL>
0

>  <SCORE.INTRA.REPUL.0>
0

>  <SCORE.INTRA.SOLV>
0

>  <SCORE.INTRA.SOLV.lig_0>
-48.1583

>  <SCORE.INTRA.VDW>
0

>  <SCORE.INTRA.VDW.0>
0

>  <SCORE.INTRA.norm>
0

>  <SCORE.RESTR>
0

>  <SCORE.RESTR.CAVITY>
0

>  <SCORE.RESTR.norm>
0

>  <SCORE.SYSTEM>
0

>  <SCORE.SYSTEM.CONST>
0

>  <SCORE.SYSTEM.DIHEDRAL>
0

>  <SCORE.SYSTEM.SOLV>
0

>  <SCORE.SYSTEM.norm>
0

>  <SCORE.heavy>
12

>  <SCORE.norm>
-1.17837

>  <RMSD>
0.422

$$$$
ligand
 OpenBabel02271912143D
libRbt.so/2013.1/901 2013/11/27
 12 13  0  0  0  0  0  0  0  0999 V2000
    6.6841   17.5576    1.7477 C   0  0  0  0  0  0  0  0  0  0  0  0
    5.3319   16.3097    3.1793 C   0  0  0  0  0  0  0  0  0  0  0  0
    7.1848   17.7477    0.5303 N   0  0  0  0  0  0  0  0  0  0  0  0
    4.5280   15.2745    3.4460 N   0  0  0  0  0  0  0  0  0  0  0  0
    5.8667   16.5044    1.9665 N   0  0  0  0  0  0  0  0  0  0  0  0
    6.9774   18.4319    2.7357 N   0  0  0  0  0  0  0  0  0  0  0  0
    5.4041   17.8858    6.5227 N   0  0  0  0  0  0  0  0  0  0  0  0
    6.2526   18.9715    6.2565 C   0  0  0  0  0  0  0  0  0  0  0  0
    6.7936   19.1451    4.9612 N   0  0  0  0  0  0  0  0  0  0  0  0
    6.4696   18.2719    3.9833 C   0  0  0  0  0  0  0  0  0  0  0  0
    5.6164   17.1914    4.2294 C   0  0  0  0  0  0  0  0  0  0  0  0
    5.0726   16.9806    5.4951 C   0  0  0  0  0  0  0  0  0  0  0  0
  1  3  1  0  0  0  0
  1  5  1  0  0  0  0
  1  6  2  0  0  0  0
  2  5  2  0  0  0  0
  2 11  1  0  0  0  0
  2  4  1  0  0  0  0
  6 10  1  0  0  0  0
  7  8  2  0  0  0  0
  7 12  1  0  0  0  0
  8  9  1  0  0  0  0
  9 10  2  0  0  0  0
 10 11  1  0  0  0  0
 11 12  2  0  0  0  0
M  END
>  <CHROM.1>
6.02364107,17.52081084,3.72422916,-1.31907114,0.91121197,1.15170468

>  <Name>
ligand

>  <RI>
0

>  <Rbt.Current_Directory>
/home/itssahil/PROJECTS/Mol_Feturizer/Test_systems_manuscript/rnas/4lx5

>  <Rbt.Executable>
rbdock ($Id: //depot/dev/client3/rdock/2013.1/src/exe/rbdock.cxx#4 $)

>  <Rbt.Library>
libRbt.so (2013.1, Build901 2013/11/27)

>  <Rbt.Parameter_File>
/export/apps/rDock/src/rDock_2013.1_src/data/scripts/dock_solv.prm

>  <Rbt.Receptor>
prm/pocket_docking_5.prm

>  <SCORE>
-14.1425

>  <SCORE.INTER>
-14.1425

>  <SCORE.INTER.CONST>
1

>  <SCORE.INTER.POLAR>
0

>  <SCORE.INTER.ROT>
0

>  <SCORE.INTER.SOLV>
18.8917

>  <SCORE.INTER.VDW>
-19.3256

>  <SCORE.INTER.norm>
-1.17854

>  <SCORE.INTRA>
0

>  <SCORE.INTRA.DIHEDRAL>
0

>  <SCORE.INTRA.DIHEDRAL.0>
0

>  <SCORE.INTRA.POLAR>
0

>  <SCORE.INTRA.POLAR.0>
0

>  <SCORE.INTRA.REPUL>
0

>  <SCORE.INTRA.REPUL.0>
0

>  <SCORE.INTRA.SOLV>
0

>  <SCORE.INTRA.SOLV.lig_0>
-48.1583

>  <SCORE.INTRA.VDW>
0

>  <SCORE.INTRA.VDW.0>
0

>  <SCORE.INTRA.norm>
0

>  <SCORE.RESTR>
0

>  <SCORE.RESTR.CAVITY>
0

>  <SCORE.RESTR.norm>
0

>  <SCORE.SYSTEM>
0

>  <SCORE.SYSTEM.CONST>
0

>  <SCORE.SYSTEM.DIHEDRAL>
0

>  <SCORE.SYSTEM.SOLV>
0

>  <SCORE.SYSTEM.norm>
0

>  <SCORE.heavy>
12

>  <SCORE.norm>
-1.17854

>  <RMSD>
0.422

$$$$
ligand
 OpenBabel02271912143D
libRbt.so/2013.1/901 2013/11/27
 12 13  0  0  0  0  0  0  0  0999 V2000
    6.6818   17.5507    1.7457 C   0  0  0  0  0  0  0  0  0  0  0  0
    5.3273   16.3113    3.1824 C   0  0  0  0  0  0  0  0  0  0  0  0
    7.1815   17.7359    0.5272 N   0  0  0  0  0  0  0  0  0  0  0  0
    4.5203   15.2795    3.4529 N   0  0  0  0  0  0  0  0  0  0  0  0
    5.8612   16.5009    1.9684 N   0  0  0  0  0  0  0  0  0  0  0  0
    6.9793   18.4268    2.7309 N   0  0  0  0  0  0  0  0  0  0  0  0
    5.4089   17.8962    6.5214 N   0  0  0  0  0  0  0  0  0  0  0  0
    6.2607   18.9783    6.2512 C   0  0  0  0  0  0  0  0  0  0  0  0
    6.8006   19.1466    4.9547 N   0  0  0  0  0  0  0  0  0  0  0  0
    6.4725   18.2718    3.9796 C   0  0  0  0  0  0  0  0  0  0  0  0
    5.6160   17.1948    4.2297 C   0  0  0  0  0  0  0  0  0  0  0  0
    5.0731   16.9893    5.4967 C   0  0  0  0  0  0  0  0  0  0  0  0
  1  3  1  0  0  0  0
  1  5  1  0  0  0  0
  1  6  2  0  0  0  0
  2  5  2  0  0  0  0
  2 11  1  0  0  0  0
  2  4  1  0  0  0  0
  6 10  1  0  0  0  0
  7  8  2  0  0  0  0
  7 12  1  0  0  0  0
  8  9  1  0  0  0  0
  9 10  2  0  0  0  0
 10 11  1  0  0  0  0
 11 12  2  0  0  0  0
M  END
>  <CHROM.1>
6.02371534,17.52150874,3.72315885,-1.32314415,0.90868652,1.15219806

>  <Name>
ligand

>  <RI>
0

>  <Rbt.Current_Directory>
/home/itssahil/PROJECTS/Mol_Feturizer/Test_systems_manuscript/rnas/4lx5

>  <Rbt.Executable>
rbdock ($Id: //depot/dev/client3/rdock/2013.1/src/exe/rbdock.cxx#4 $)

>  <Rbt.Library>
libRbt.so (2013.1, Build901 2013/11/27)

>  <Rbt.Parameter_File>
/export/apps/rDock/src/rDock_2013.1_src/data/scripts/dock_solv.prm

>  <Rbt.Receptor>
prm/blind_docking_40.prm

>  <SCORE>
-14.1432

>  <SCORE.INTER>
-14.1432

>  <SCORE.INTER.CONST>
1

>  <SCORE.INTER.POLAR>
0

>  <SCORE.INTER.ROT>
0

>  <SCORE.INTER.SOLV>
18.8507

>  <SCORE.INTER.VDW>
-19.3124

>  <SCORE.INTER.norm>
-1.1786

>  <SCORE.INTRA>
0

>  <SCORE.INTRA.DIHEDRAL>
0

>  <SCORE.INTRA.DIHEDRAL.0>
0

>  <SCORE.INTRA.POLAR>
0

>  <SCORE.INTRA.POLAR.0>
0

>  <SCORE.INTRA.REPUL>
0

>  <SCORE.INTRA.REPUL.0>
0

>  <SCORE.INTRA.SOLV>
0

>  <SCORE.INTRA.SOLV.lig_0>
-48.1583

>  <SCORE.INTRA.VDW>
0

>  <SCORE.INTRA.VDW.0>
0

>  <SCORE.INTRA.norm>
0

>  <SCORE.RESTR>
0

>  <SCORE.RESTR.CAVITY>
0

>  <SCORE.RESTR.norm>
0

>  <SCORE.SYSTEM>
0

>  <SCORE.SYSTEM.CONST>
0

>  <SCORE.SYSTEM.DIHEDRAL>
0

>  <SCORE.SYSTEM.SOLV>
0

>  <SCORE.SYSTEM.norm>
0

>  <SCORE.heavy>
12

>  <SCORE.norm>
-1.1786

>  <RMSD>
0.423

$$$$
ligand
 OpenBabel02271912143D
libRbt.so/2013.1/901 2013/11/27
 12 13  0  0  0  0  0  0  0  0999 V2000
    6.6761   17.5478    1.7447 C   0  0  0  0  0  0  0  0  0  0  0  0
    5.3269   16.3063    3.1845 C   0  0  0  0  0  0  0  0  0  0  0  0
    7.1733   17.7333    0.5252 N   0  0  0  0  0  0  0  0  0  0  0  0
    4.5229   15.2727    3.4572 N   0  0  0  0  0  0  0  0  0  0  0  0
    5.8583   16.4962    1.9695 N   0  0  0  0  0  0  0  0  0  0  0  0
    6.9731   18.4254    2.7288 N   0  0  0  0  0  0  0  0  0  0  0  0
    5.4105   17.8938    6.5222 N   0  0  0  0  0  0  0  0  0  0  0  0
    6.2592   18.9778    6.2498 C   0  0  0  0  0  0  0  0  0  0  0  0
    6.7966   19.1464    4.9523 N   0  0  0  0  0  0  0  0  0  0  0  0
    6.4689   18.2701    3.9784 C   0  0  0  0  0  0  0  0  0  0  0  0
    5.6153   17.1913    4.2307 C   0  0  0  0  0  0  0  0  0  0  0  0
    5.0751   16.9854    5.4988 C   0  0  0  0  0  0  0  0  0  0  0  0
  1  3  1  0  0  0  0
  1  5  1  0  0  0  0
  1  6  2  0  0  0  0
  2  5  2  0  0  0  0
  2 11  1  0  0  0  0
  2  4  1  0  0  0  0
  6 10  1  0  0  0  0
  7  8  2  0  0  0  0
  7 12  1  0  0  0  0
  8  9  1  0  0  0  0
  9 10  2  0  0  0  0
 10 11  1  0  0  0  0
 11 12  2  0  0  0  0
M  END
>  <CHROM.1>
6.02139200,17.51855690,3.72325812,-1.32410348,0.91154675,1.15222055

>  <Name>
ligand

>  <RI>
0

>  <Rbt.Current_Directory>
/home/itssahil/PROJECTS/Mol_Feturizer/Test_systems_manuscript/rnas/4lx5

>  <Rbt.Executable>
rbdock ($Id: //depot/dev/client3/rdock/2013.1/src/exe/rbdock.cxx#4 $)

>  <Rbt.Library>
libRbt.so (2013.1, Build901 2013/11/27)

>  <Rbt.Parameter_File>
/export/apps/rDock/src/rDock_2013.1_src/data/scripts/dock_solv.prm

>  <Rbt.Receptor>
prm/blind_docking_40.prm

>  <SCORE>
-14.1446

>  <SCORE.INTER>
-14.1446

>  <SCORE.INTER.CONST>
1

>  <SCORE.INTER.POLAR>
0

>  <SCORE.INTER.ROT>
0

>  <SCORE.INTER.SOLV>
18.8597

>  <SCORE.INTER.VDW>
-19.3163

>  <SCORE.INTER.norm>
-1.17871

>  <SCORE.INTRA>
0

>  <SCORE.INTRA.DIHEDRAL>
0

>  <SCORE.INTRA.DIHEDRAL.0>
0

>  <SCORE.INTRA.POLAR>
0

>  <SCORE.INTRA.POLAR.0>
0

>  <SCORE.INTRA.REPUL>
0

>  <SCORE.INTRA.REPUL.0>
0

>  <SCORE.INTRA.SOLV>
0

>  <SCORE.INTRA.SOLV.lig_0>
-48.1583

>  <SCORE.INTRA.VDW>
0

>  <SCORE.INTRA.VDW.0>
0

>  <SCORE.INTRA.norm>
0

>  <SCORE.RESTR>
0

>  <SCORE.RESTR.CAVITY>
0

>  <SCORE.RESTR.norm>
0

>  <SCORE.SYSTEM>
0

>  <SCORE.SYSTEM.CONST>
0

>  <SCORE.SYSTEM.DIHEDRAL>
0

>  <SCORE.SYSTEM.SOLV>
0

>  <SCORE.SYSTEM.norm>
0

>  <SCORE.heavy>
12

>  <SCORE.norm>
-1.17871

>  <RMSD>
0.423

$$$$
ligand
 OpenBabel02271912143D
libRbt.so/2013.1/901 2013/11/27
 12 13  0  0  0  0  0  0  0  0999 V2000
    6.6793   17.5588    1.7452 C   0  0  0  0  0  0  0  0  0  0  0  0
    5.3307   16.3113    3.1803 C   0  0  0  0  0  0  0  0  0  0  0  0
    7.1780   17.7480    0.5268 N   0  0  0  0  0  0  0  0  0  0  0  0
    4.5284   15.2754    3.4496 N   0  0  0  0  0  0  0  0  0  0  0  0
    5.8635   16.5050    1.9666 N   0  0  0  0  0  0  0  0  0  0  0  0
    6.9730   18.4348    2.7316 N   0  0  0  0  0  0  0  0  0  0  0  0
    5.4058   17.8918    6.5216 N   0  0  0  0  0  0  0  0  0  0  0  0
    6.2526   18.9782    6.2527 C   0  0  0  0  0  0  0  0  0  0  0  0
    6.7916   19.1507    4.9564 N   0  0  0  0  0  0  0  0  0  0  0  0
    6.4672   18.2758    3.9801 C   0  0  0  0  0  0  0  0  0  0  0  0
    5.6156   17.1946    4.2289 C   0  0  0  0  0  0  0  0  0  0  0  0
    5.0739   16.9848    5.4957 C   0  0  0  0  0  0  0  0  0  0  0  0
  1  3  1  0  0  0  0
  1  5  1  0  0  0  0
  1  6  2  0  0  0  0
  2  5  2  0  0  0  0
  2 11  1  0  0  0  0
  2  4  1  0  0  0  0
  6 10  1  0  0  0  0
  7  8  2  0  0  0  0
  7 12  1  0  0  0  0
  8  9  1  0  0  0  0
  9 10  2  0  0  0  0
 10 11  1  0  0  0  0
 11 12  2  0  0  0  0
M  END
>  <CHROM.1>
6.02174836,17.52386220,3.72271520,-1.32042422,0.91288697,1.15145510

>  <Name>
ligand

>  <RI>
0

>  <Rbt.Current_Directory>
/home/itssahil/PROJECTS/Mol_Feturizer/Test_systems_manuscript/rnas/4lx5

>  <Rbt.Executable>
rbdock ($Id: //depot/dev/client3/rdock/2013.1/src/exe/rbdock.cxx#4 $)

>  <Rbt.Library>
libRbt.so (2013.1, Build901 2013/11/27)

>  <Rbt.Parameter_File>
/export/apps/rDock/src/rDock_2013.1_src/data/scripts/dock_solv.prm

>  <Rbt.Receptor>
prm/blind_docking_60.prm

>  <SCORE>
-14.145

>  <SCORE.INTER>
-14.145

>  <SCORE.INTER.CONST>
1

>  <SCORE.INTER.POLAR>
0

>  <SCORE.INTER.ROT>
0

>  <SCORE.INTER.SOLV>
18.8892

>  <SCORE.INTER.VDW>
-19.3264

>  <SCORE.INTER.norm>
-1.17875

>  <SCORE.INTRA>
0

>  <SCORE.INTRA.DIHEDRAL>
0

>  <SCORE.INTRA.DIHEDRAL.0>
0

>  <SCORE.INTRA.POLAR>
0

>  <SCORE.INTRA.POLAR.0>
0

>  <SCORE.INTRA.REPUL>
0

>  <SCORE.INTRA.REPUL.0>
0

>  <SCORE.INTRA.SOLV>
0

>  <SCORE.INTRA.SOLV.lig_0>
-48.1583

>  <SCORE.INTRA.VDW>
0

>  <SCORE.INTRA.VDW.0>
0

>  <SCORE.INTRA.norm>
0

>  <SCORE.RESTR>
0

>  <SCORE.RESTR.CAVITY>
0

>  <SCORE.RESTR.norm>
0

>  <SCORE.SYSTEM>
0

>  <SCORE.SYSTEM.CONST>
0

>  <SCORE.SYSTEM.DIHEDRAL>
0

>  <SCORE.SYSTEM.SOLV>
0

>  <SCORE.SYSTEM.norm>
0

>  <SCORE.heavy>
12

>  <SCORE.norm>
-1.17875

>  <RMSD>
0.423

$$$$
ligand
 OpenBabel02271912143D
libRbt.so/2013.1/901 2013/11/27
 12 13  0  0  0  0  0  0  0  0999 V2000
    6.6815   17.5564    1.7464 C   0  0  0  0  0  0  0  0  0  0  0  0
    5.3289   16.3123    3.1809 C   0  0  0  0  0  0  0  0  0  0  0  0
    7.1813   17.7442    0.5283 N   0  0  0  0  0  0  0  0  0  0  0  0
    4.5239   15.2785    3.4497 N   0  0  0  0  0  0  0  0  0  0  0  0
    5.8629   16.5046    1.9674 N   0  0  0  0  0  0  0  0  0  0  0  0
    6.9769   18.4317    2.7330 N   0  0  0  0  0  0  0  0  0  0  0  0
    5.4063   17.8927    6.5221 N   0  0  0  0  0  0  0  0  0  0  0  0
    6.2560   18.9769    6.2537 C   0  0  0  0  0  0  0  0  0  0  0  0
    6.7961   19.1481    4.9577 N   0  0  0  0  0  0  0  0  0  0  0  0
    6.4700   18.2739    3.9812 C   0  0  0  0  0  0  0  0  0  0  0  0
    5.6155   17.1949    4.2296 C   0  0  0  0  0  0  0  0  0  0  0  0
    5.0726   16.9866    5.4961 C   0  0  0  0  0  0  0  0  0  0  0  0
  1  3  1  0  0  0  0
  1  5  1  0  0  0  0
  1  6  2  0  0  0  0
  2  5  2  0  0  0  0
  2 11  1  0  0  0  0
  2  4  1  0  0  0  0
  6 10  1  0  0  0  0
  7  8  2  0  0  0  0
  7 12  1  0  0  0  0
  8  9  1  0  0  0  0
  9 10  2  0  0  0  0
 10 11  1  0  0  0  0
 11 12  2  0  0  0  0
M  END
>  <CHROM.1>
6.02278032,17.52314652,3.72359699,-1.32132793,0.91035800,1.15214837

>  <Name>
ligand

>  <RI>
0

>  <Rbt.Current_Directory>
/home/itssahil/PROJECTS/Mol_Feturizer/Test_systems_manuscript/rnas/4lx5

>  <Rbt.Executable>
rbdock ($Id: //depot/dev/client3/rdock/2013.1/src/exe/rbdock.cxx#4 $)

>  <Rbt.Library>
libRbt.so (2013.1, Build901 2013/11/27)

>  <Rbt.Parameter_File>
/export/apps/rDock/src/rDock_2013.1_src/data/scripts/dock_solv.prm

>  <Rbt.Receptor>
prm/pocket_docking_4.prm

>  <SCORE>
-14.1439

>  <SCORE.INTER>
-14.1439

>  <SCORE.INTER.CONST>
1

>  <SCORE.INTER.POLAR>
0

>  <SCORE.INTER.ROT>
0

>  <SCORE.INTER.SOLV>
18.869

>  <SCORE.INTER.VDW>
-19.319

>  <SCORE.INTER.norm>
-1.17866

>  <SCORE.INTRA>
0

>  <SCORE.INTRA.DIHEDRAL>
0

>  <SCORE.INTRA.DIHEDRAL.0>
0

>  <SCORE.INTRA.POLAR>
0

>  <SCORE.INTRA.POLAR.0>
0

>  <SCORE.INTRA.REPUL>
0

>  <SCORE.INTRA.REPUL.0>
0

>  <SCORE.INTRA.SOLV>
0

>  <SCORE.INTRA.SOLV.lig_0>
-48.1583

>  <SCORE.INTRA.VDW>
0

>  <SCORE.INTRA.VDW.0>
0

>  <SCORE.INTRA.norm>
0

>  <SCORE.RESTR>
0

>  <SCORE.RESTR.CAVITY>
0

>  <SCORE.RESTR.norm>
0

>  <SCORE.SYSTEM>
0

>  <SCORE.SYSTEM.CONST>
0

>  <SCORE.SYSTEM.DIHEDRAL>
0

>  <SCORE.SYSTEM.SOLV>
0

>  <SCORE.SYSTEM.norm>
0

>  <SCORE.heavy>
12

>  <SCORE.norm>
-1.17866

>  <RMSD>
0.423

$$$$
ligand
 OpenBabel02271912143D
libRbt.so/2013.1/901 2013/11/27
 12 13  0  0  0  0  0  0  0  0999 V2000
    6.6717   17.5457    1.7374 C   0  0  0  0  0  0  0  0  0  0  0  0
    5.3299   16.3070    3.1867 C   0  0  0  0  0  0  0  0  0  0  0  0
    7.1628   17.7286    0.5151 N   0  0  0  0  0  0  0  0  0  0  0  0
    4.5274   15.2739    3.4656 N   0  0  0  0  0  0  0  0  0  0  0  0
    5.8552   16.4944    1.9686 N   0  0  0  0  0  0  0  0  0  0  0  0
    6.9734   18.4254    2.7181 N   0  0  0  0  0  0  0  0  0  0  0  0
    5.4295   17.9019    6.5204 N   0  0  0  0  0  0  0  0  0  0  0  0
    6.2767   18.9854    6.2414 C   0  0  0  0  0  0  0  0  0  0  0  0
    6.8076   19.1513    4.9409 N   0  0  0  0  0  0  0  0  0  0  0  0
    6.4753   18.2728    3.9705 C   0  0  0  0  0  0  0  0  0  0  0  0
    5.6232   17.1943    4.2295 C   0  0  0  0  0  0  0  0  0  0  0  0
    5.0893   16.9911    5.5007 C   0  0  0  0  0  0  0  0  0  0  0  0
  1  3  1  0  0  0  0
  1  5  1  0  0  0  0
  1  6  2  0  0  0  0
  2  5  2  0  0  0  0
  2 11  1  0  0  0  0
  2  4  1  0  0  0  0
  6 10  1  0  0  0  0
  7  8  2  0  0  0  0
  7 12  1  0  0  0  0
  8  9  1  0  0  0  0
  9 10  2  0  0  0  0
 10 11  1  0  0  0  0
 11 12  2  0  0  0  0
M  END
>  <CHROM.1>
6.02674508,17.52059902,3.71928942,-1.33133401,0.91372655,1.15573692

>  <Name>
ligand

>  <RI>
0

>  <Rbt.Current_Directory>
/home/itssahil/PROJECTS/Mol_Feturizer/Test_systems_manuscript/rnas/4lx5

>  <Rbt.Executable>
rbdock ($Id: //depot/dev/client3/rdock/2013.1/src/exe/rbdock.cxx#4 $)

>  <Rbt.Library>
libRbt.so (2013.1, Build901 2013/11/27)

>  <Rbt.Parameter_File>
/export/apps/rDock/src/rDock_2013.1_src/data/scripts/dock_solv.prm

>  <Rbt.Receptor>
prm/pocket_docking_5.prm

>  <SCORE>
-14.1087

>  <SCORE.INTER>
-14.1087

>  <SCORE.INTER.CONST>
1

>  <SCORE.INTER.POLAR>
0

>  <SCORE.INTER.ROT>
0

>  <SCORE.INTER.SOLV>
18.8584

>  <SCORE.INTER.VDW>
-19.2919

>  <SCORE.INTER.norm>
-1.17572

>  <SCORE.INTRA>
0

>  <SCORE.INTRA.DIHEDRAL>
0

>  <SCORE.INTRA.DIHEDRAL.0>
0

>  <SCORE.INTRA.POLAR>
0

>  <SCORE.INTRA.POLAR.0>
0

>  <SCORE.INTRA.REPUL>
0

>  <SCORE.INTRA.REPUL.0>
0

>  <SCORE.INTRA.SOLV>
0

>  <SCORE.INTRA.SOLV.lig_0>
-48.1583

>  <SCORE.INTRA.VDW>
0

>  <SCORE.INTRA.VDW.0>
0

>  <SCORE.INTRA.norm>
0

>  <SCORE.RESTR>
0

>  <SCORE.RESTR.CAVITY>
0

>  <SCORE.RESTR.norm>
0

>  <SCORE.SYSTEM>
0

>  <SCORE.SYSTEM.CONST>
0

>  <SCORE.SYSTEM.DIHEDRAL>
0

>  <SCORE.SYSTEM.SOLV>
0

>  <SCORE.SYSTEM.norm>
0

>  <SCORE.heavy>
12

>  <SCORE.norm>
-1.17572

>  <RMSD>
0.423

$$$$
ligand
 OpenBabel02271912143D
libRbt.so/2013.1/901 2013/11/27
 12 13  0  0  0  0  0  0  0  0999 V2000
    6.6816   17.5691    1.7577 C   0  0  0  0  0  0  0  0  0  0  0  0
    5.3388   16.2992    3.1786 C   0  0  0  0  0  0  0  0  0  0  0  0
    7.1795   17.7743    0.5416 N   0  0  0  0  0  0  0  0  0  0  0  0
    4.5415   15.2566    3.4362 N   0  0  0  0  0  0  0  0  0  0  0  0
    5.8708   16.5090    1.9671 N   0  0  0  0  0  0  0  0  0  0  0  0
    6.9710   18.4355    2.7538 N   0  0  0  0  0  0  0  0  0  0  0  0
    5.4060   17.8428    6.5372 N   0  0  0  0  0  0  0  0  0  0  0  0
    6.2476   18.9362    6.2807 C   0  0  0  0  0  0  0  0  0  0  0  0
    6.7858   19.1257    4.9864 N   0  0  0  0  0  0  0  0  0  0  0  0
    6.4658   18.2602    4.0004 C   0  0  0  0  0  0  0  0  0  0  0  0
    5.6194   17.1722    4.2370 C   0  0  0  0  0  0  0  0  0  0  0  0
    5.0785   16.9458    5.5013 C   0  0  0  0  0  0  0  0  0  0  0  0
  1  3  1  0  0  0  0
  1  5  1  0  0  0  0
  1  6  2  0  0  0  0
  2  5  2  0  0  0  0
  2 11  1  0  0  0  0
  2  4  1  0  0  0  0
  6 10  1  0  0  0  0
  7  8  2  0  0  0  0
  7 12  1  0  0  0  0
  8  9  1  0  0  0  0
  9 10  2  0  0  0  0
 10 11  1  0  0  0  0
 11 12  2  0  0  0  0
M  END
>  <CHROM.1>
6.02398976,17.50902850,3.73456442,-1.31704103,0.91722794,1.15991038

>  <Name>
ligand

>  <RI>
0

>  <Rbt.Current_Directory>
/home/itssahil/PROJECTS/Mol_Feturizer/Test_systems_manuscript/rnas/4lx5

>  <Rbt.Executable>
rbdock ($Id: //depot/dev/client3/rdock/2013.1/src/exe/rbdock.cxx#4 $)

>  <Rbt.Library>
libRbt.so (2013.1, Build901 2013/11/27)

>  <Rbt.Parameter_File>
/export/apps/rDock/src/rDock_2013.1_src/data/scripts/dock_solv.prm

>  <Rbt.Receptor>
prm/pocket_docking_4.prm

>  <SCORE>
-14.1282

>  <SCORE.INTER>
-14.1282

>  <SCORE.INTER.CONST>
1

>  <SCORE.INTER.POLAR>
0

>  <SCORE.INTER.ROT>
0

>  <SCORE.INTER.SOLV>
18.9703

>  <SCORE.INTER.VDW>
-19.3422

>  <SCORE.INTER.norm>
-1.17735

>  <SCORE.INTRA>
0

>  <SCORE.INTRA.DIHEDRAL>
0

>  <SCORE.INTRA.DIHEDRAL.0>
0

>  <SCORE.INTRA.POLAR>
0

>  <SCORE.INTRA.POLAR.0>
0

>  <SCORE.INTRA.REPUL>
0

>  <SCORE.INTRA.REPUL.0>
0

>  <SCORE.INTRA.SOLV>
0

>  <SCORE.INTRA.SOLV.lig_0>
-48.1583

>  <SCORE.INTRA.VDW>
0

>  <SCORE.INTRA.VDW.0>
0

>  <SCORE.INTRA.norm>
0

>  <SCORE.RESTR>
0

>  <SCORE.RESTR.CAVITY>
0

>  <SCORE.RESTR.norm>
0

>  <SCORE.SYSTEM>
0

>  <SCORE.SYSTEM.CONST>
0

>  <SCORE.SYSTEM.DIHEDRAL>
0

>  <SCORE.SYSTEM.SOLV>
0

>  <SCORE.SYSTEM.norm>
0

>  <SCORE.heavy>
12

>  <SCORE.norm>
-1.17735

>  <RMSD>
0.424

$$$$
ligand
 OpenBabel02271912143D
libRbt.so/2013.1/901 2013/11/27
 12 13  0  0  0  0  0  0  0  0999 V2000
    6.6825   17.5676    1.7520 C   0  0  0  0  0  0  0  0  0  0  0  0
    5.3320   16.3117    3.1781 C   0  0  0  0  0  0  0  0  0  0  0  0
    7.1823   17.7642    0.5353 N   0  0  0  0  0  0  0  0  0  0  0  0
    4.5291   15.2746    3.4402 N   0  0  0  0  0  0  0  0  0  0  0  0
    5.8660   16.5128    1.9661 N   0  0  0  0  0  0  0  0  0  0  0  0
    6.9756   18.4374    2.7441 N   0  0  0  0  0  0  0  0  0  0  0  0
    5.4046   17.8715    6.5292 N   0  0  0  0  0  0  0  0  0  0  0  0
    6.2521   18.9592    6.2678 C   0  0  0  0  0  0  0  0  0  0  0  0
    6.7923   19.1396    4.9731 N   0  0  0  0  0  0  0  0  0  0  0  0
    6.4685   18.2708    3.9911 C   0  0  0  0  0  0  0  0  0  0  0  0
    5.6163   17.1885    4.2324 C   0  0  0  0  0  0  0  0  0  0  0  0
    5.0733   16.9711    5.4974 C   0  0  0  0  0  0  0  0  0  0  0  0
  1  3  1  0  0  0  0
  1  5  1  0  0  0  0
  1  6  2  0  0  0  0
  2  5  2  0  0  0  0
  2 11  1  0  0  0  0
  2  4  1  0  0  0  0
  6 10  1  0  0  0  0
  7  8  2  0  0  0  0
  7 12  1  0  0  0  0
  8  9  1  0  0  0  0
  9 10  2  0  0  0  0
 10 11  1  0  0  0  0
 11 12  2  0  0  0  0
M  END
>  <CHROM.1>
6.02303189,17.52069587,3.72864902,-1.31930047,0.91216615,1.15676328

>  <Name>
ligand

>  <RI>
0

>  <Rbt.Current_Directory>
/home/itssahil/PROJECTS/Mol_Feturizer/Test_systems_manuscript/rnas/4lx5

>  <Rbt.Executable>
rbdock ($Id: //depot/dev/client3/rdock/2013.1/src/exe/rbdock.cxx#4 $)

>  <Rbt.Library>
libRbt.so (2013.1, Build901 2013/11/27)

>  <Rbt.Parameter_File>
/export/apps/rDock/src/rDock_2013.1_src/data/scripts/dock_solv.prm

>  <Rbt.Receptor>
prm/pocket_docking_8.prm

>  <SCORE>
-14.105

>  <SCORE.INTER>
-14.105

>  <SCORE.INTER.CONST>
1

>  <SCORE.INTER.POLAR>
0

>  <SCORE.INTER.ROT>
0

>  <SCORE.INTER.SOLV>
18.9032

>  <SCORE.INTER.VDW>
-19.3044

>  <SCORE.INTER.norm>
-1.17542

>  <SCORE.INTRA>
0

>  <SCORE.INTRA.DIHEDRAL>
0

>  <SCORE.INTRA.DIHEDRAL.0>
0

>  <SCORE.INTRA.POLAR>
0

>  <SCORE.INTRA.POLAR.0>
0

>  <SCORE.INTRA.REPUL>
0

>  <SCORE.INTRA.REPUL.0>
0

>  <SCORE.INTRA.SOLV>
0

>  <SCORE.INTRA.SOLV.lig_0>
-48.1583

>  <SCORE.INTRA.VDW>
0

>  <SCORE.INTRA.VDW.0>
0

>  <SCORE.INTRA.norm>
0

>  <SCORE.RESTR>
0

>  <SCORE.RESTR.CAVITY>
0

>  <SCORE.RESTR.norm>
0

>  <SCORE.SYSTEM>
0

>  <SCORE.SYSTEM.CONST>
0

>  <SCORE.SYSTEM.DIHEDRAL>
0

>  <SCORE.SYSTEM.SOLV>
0

>  <SCORE.SYSTEM.norm>
0

>  <SCORE.heavy>
12

>  <SCORE.norm>
-1.17542

>  <RMSD>
0.424

$$$$
ligand
 OpenBabel02271912143D
libRbt.so/2013.1/901 2013/11/27
 12 13  0  0  0  0  0  0  0  0999 V2000
    6.6684   17.5374    1.7374 C   0  0  0  0  0  0  0  0  0  0  0  0
    5.3346   16.3001    3.1951 C   0  0  0  0  0  0  0  0  0  0  0  0
    7.1561   17.7168    0.5131 N   0  0  0  0  0  0  0  0  0  0  0  0
    4.5366   15.2653    3.4804 N   0  0  0  0  0  0  0  0  0  0  0  0
    5.8564   16.4841    1.9751 N   0  0  0  0  0  0  0  0  0  0  0  0
    6.9691   18.4225    2.7136 N   0  0  0  0  0  0  0  0  0  0  0  0
    5.4361   17.9099    6.5217 N   0  0  0  0  0  0  0  0  0  0  0  0
    6.2785   18.9953    6.2360 C   0  0  0  0  0  0  0  0  0  0  0  0
    6.8058   19.1575    4.9336 N   0  0  0  0  0  0  0  0  0  0  0  0
    6.4745   18.2735    3.9678 C   0  0  0  0  0  0  0  0  0  0  0  0
    5.6271   17.1930    4.2334 C   0  0  0  0  0  0  0  0  0  0  0  0
    5.0968   16.9934    5.5067 C   0  0  0  0  0  0  0  0  0  0  0  0
  1  3  1  0  0  0  0
  1  5  1  0  0  0  0
  1  6  2  0  0  0  0
  2  5  2  0  0  0  0
  2 11  1  0  0  0  0
  2  4  1  0  0  0  0
  6 10  1  0  0  0  0
  7  8  2  0  0  0  0
  7 12  1  0  0  0  0
  8  9  1  0  0  0  0
  9 10  2  0  0  0  0
 10 11  1  0  0  0  0
 11 12  2  0  0  0  0
M  END
>  <CHROM.1>
6.02819375,17.51857861,3.72086969,-1.33236349,0.91804934,1.15221080

>  <Name>
ligand

>  <RI>
0

>  <Rbt.Current_Directory>
/home/itssahil/PROJECTS/Mol_Feturizer/Test_systems_manuscript/rnas/4lx5

>  <Rbt.Executable>
rbdock ($Id: //depot/dev/client3/rdock/2013.1/src/exe/rbdock.cxx#4 $)

>  <Rbt.Library>
libRbt.so (2013.1, Build901 2013/11/27)

>  <Rbt.Parameter_File>
/export/apps/rDock/src/rDock_2013.1_src/data/scripts/dock_solv.prm

>  <Rbt.Receptor>
prm/pocket_docking_4.prm

>  <SCORE>
-14.1105

>  <SCORE.INTER>
-14.1105

>  <SCORE.INTER.CONST>
1

>  <SCORE.INTER.POLAR>
0

>  <SCORE.INTER.ROT>
0

>  <SCORE.INTER.SOLV>
18.8865

>  <SCORE.INTER.VDW>
-19.3025

>  <SCORE.INTER.norm>
-1.17588

>  <SCORE.INTRA>
0

>  <SCORE.INTRA.DIHEDRAL>
0

>  <SCORE.INTRA.DIHEDRAL.0>
0

>  <SCORE.INTRA.POLAR>
0

>  <SCORE.INTRA.POLAR.0>
0

>  <SCORE.INTRA.REPUL>
0

>  <SCORE.INTRA.REPUL.0>
0

>  <SCORE.INTRA.SOLV>
0

>  <SCORE.INTRA.SOLV.lig_0>
-48.1583

>  <SCORE.INTRA.VDW>
0

>  <SCORE.INTRA.VDW.0>
0

>  <SCORE.INTRA.norm>
0

>  <SCORE.RESTR>
0

>  <SCORE.RESTR.CAVITY>
0

>  <SCORE.RESTR.norm>
0

>  <SCORE.SYSTEM>
0

>  <SCORE.SYSTEM.CONST>
0

>  <SCORE.SYSTEM.DIHEDRAL>
0

>  <SCORE.SYSTEM.SOLV>
0

>  <SCORE.SYSTEM.norm>
0

>  <SCORE.heavy>
12

>  <SCORE.norm>
-1.17588

>  <RMSD>
0.426

$$$$
ligand
 OpenBabel02271912143D
libRbt.so/2013.1/901 2013/11/27
 12 13  0  0  0  0  0  0  0  0999 V2000
    6.6650   17.5446    1.7441 C   0  0  0  0  0  0  0  0  0  0  0  0
    5.3173   16.3078    3.1894 C   0  0  0  0  0  0  0  0  0  0  0  0
    7.1580   17.7284    0.5226 N   0  0  0  0  0  0  0  0  0  0  0  0
    4.5107   15.2771    3.4653 N   0  0  0  0  0  0  0  0  0  0  0  0
    5.8444   16.4959    1.9723 N   0  0  0  0  0  0  0  0  0  0  0  0
    6.9691   18.4210    2.7270 N   0  0  0  0  0  0  0  0  0  0  0  0
    5.4198   17.8950    6.5267 N   0  0  0  0  0  0  0  0  0  0  0  0
    6.2712   18.9759    6.2509 C   0  0  0  0  0  0  0  0  0  0  0  0
    6.8040   19.1427    4.9513 N   0  0  0  0  0  0  0  0  0  0  0  0
    6.4693   18.2675    3.9786 C   0  0  0  0  0  0  0  0  0  0  0  0
    5.6130   17.1917    4.2344 C   0  0  0  0  0  0  0  0  0  0  0  0
    5.0771   16.9877    5.5047 C   0  0  0  0  0  0  0  0  0  0  0  0
  1  3  1  0  0  0  0
  1  5  1  0  0  0  0
  1  6  2  0  0  0  0
  2  5  2  0  0  0  0
  2 11  1  0  0  0  0
  2  4  1  0  0  0  0
  6 10  1  0  0  0  0
  7  8  2  0  0  0  0
  7 12  1  0  0  0  0
  8  9  1  0  0  0  0
  9 10  2  0  0  0  0
 10 11  1  0  0  0  0
 11 12  2  0  0  0  0
M  END
>  <CHROM.1>
6.01816346,17.51759929,3.72532861,-1.33240762,0.90993921,1.15878707

>  <Name>
ligand

>  <RI>
0

>  <Rbt.Current_Directory>
/home/itssahil/PROJECTS/Mol_Feturizer/Test_systems_manuscript/rnas/4lx5

>  <Rbt.Executable>
rbdock ($Id: //depot/dev/client3/rdock/2013.1/src/exe/rbdock.cxx#4 $)

>  <Rbt.Library>
libRbt.so (2013.1, Build901 2013/11/27)

>  <Rbt.Parameter_File>
/export/apps/rDock/src/rDock_2013.1_src/data/scripts/dock_solv.prm

>  <Rbt.Receptor>
prm/pocket_docking_7.prm

>  <SCORE>
-14.1085

>  <SCORE.INTER>
-14.1085

>  <SCORE.INTER.CONST>
1

>  <SCORE.INTER.POLAR>
0

>  <SCORE.INTER.ROT>
0

>  <SCORE.INTER.SOLV>
18.7982

>  <SCORE.INTER.VDW>
-19.2717

>  <SCORE.INTER.norm>
-1.17571

>  <SCORE.INTRA>
0

>  <SCORE.INTRA.DIHEDRAL>
0

>  <SCORE.INTRA.DIHEDRAL.0>
0

>  <SCORE.INTRA.POLAR>
0

>  <SCORE.INTRA.POLAR.0>
0

>  <SCORE.INTRA.REPUL>
0

>  <SCORE.INTRA.REPUL.0>
0

>  <SCORE.INTRA.SOLV>
0

>  <SCORE.INTRA.SOLV.lig_0>
-48.1583

>  <SCORE.INTRA.VDW>
0

>  <SCORE.INTRA.VDW.0>
0

>  <SCORE.INTRA.norm>
0

>  <SCORE.RESTR>
0

>  <SCORE.RESTR.CAVITY>
0

>  <SCORE.RESTR.norm>
0

>  <SCORE.SYSTEM>
0

>  <SCORE.SYSTEM.CONST>
0

>  <SCORE.SYSTEM.DIHEDRAL>
0

>  <SCORE.SYSTEM.SOLV>
0

>  <SCORE.SYSTEM.norm>
0

>  <SCORE.heavy>
12

>  <SCORE.norm>
-1.17571

>  <RMSD>
0.427

$$$$
ligand
 OpenBabel02271912143D
libRbt.so/2013.1/901 2013/11/27
 12 13  0  0  0  0  0  0  0  0999 V2000
    6.6499   17.5523    1.7373 C   0  0  0  0  0  0  0  0  0  0  0  0
    5.3155   16.3093    3.1896 C   0  0  0  0  0  0  0  0  0  0  0  0
    7.1356   17.7383    0.5132 N   0  0  0  0  0  0  0  0  0  0  0  0
    4.5152   15.2748    3.4697 N   0  0  0  0  0  0  0  0  0  0  0  0
    5.8354   16.4998    1.9697 N   0  0  0  0  0  0  0  0  0  0  0  0
    6.9550   18.4303    2.7185 N   0  0  0  0  0  0  0  0  0  0  0  0
    5.4280   17.8972    6.5263 N   0  0  0  0  0  0  0  0  0  0  0  0
    6.2729   18.9821    6.2459 C   0  0  0  0  0  0  0  0  0  0  0  0
    6.7981   19.1513    4.9435 N   0  0  0  0  0  0  0  0  0  0  0  0
    6.4624   18.2745    3.9727 C   0  0  0  0  0  0  0  0  0  0  0  0
    5.6125   17.1947    4.2330 C   0  0  0  0  0  0  0  0  0  0  0  0
    5.0843   16.9883    5.5061 C   0  0  0  0  0  0  0  0  0  0  0  0
  1  3  1  0  0  0  0
  1  5  1  0  0  0  0
  1  6  2  0  0  0  0
  2  5  2  0  0  0  0
  2 11  1  0  0  0  0
  2  4  1  0  0  0  0
  6 10  1  0  0  0  0
  7  8  2  0  0  0  0
  7 12  1  0  0  0  0
  8  9  1  0  0  0  0
  9 10  2  0  0  0  0
 10 11  1  0  0  0  0
 11 12  2  0  0  0  0
M  END
>  <CHROM.1>
6.01352769,17.52242904,3.72180836,-1.33717526,0.91632631,1.16250121

>  <Name>
ligand

>  <RI>
0

>  <Rbt.Current_Directory>
/home/itssahil/PROJECTS/Mol_Feturizer/Test_systems_manuscript/rnas/4lx5

>  <Rbt.Executable>
rbdock ($Id: //depot/dev/client3/rdock/2013.1/src/exe/rbdock.cxx#4 $)

>  <Rbt.Library>
libRbt.so (2013.1, Build901 2013/11/27)

>  <Rbt.Parameter_File>
/export/apps/rDock/src/rDock_2013.1_src/data/scripts/dock_solv.prm

>  <Rbt.Receptor>
prm/pocket_docking_7.prm

>  <SCORE>
-14.076

>  <SCORE.INTER>
-14.076

>  <SCORE.INTER.CONST>
1

>  <SCORE.INTER.POLAR>
0

>  <SCORE.INTER.ROT>
0

>  <SCORE.INTER.SOLV>
18.8093

>  <SCORE.INTER.VDW>
-19.2538

>  <SCORE.INTER.norm>
-1.173

>  <SCORE.INTRA>
0

>  <SCORE.INTRA.DIHEDRAL>
0

>  <SCORE.INTRA.DIHEDRAL.0>
0

>  <SCORE.INTRA.POLAR>
0

>  <SCORE.INTRA.POLAR.0>
0

>  <SCORE.INTRA.REPUL>
0

>  <SCORE.INTRA.REPUL.0>
0

>  <SCORE.INTRA.SOLV>
0

>  <SCORE.INTRA.SOLV.lig_0>
-48.1583

>  <SCORE.INTRA.VDW>
0

>  <SCORE.INTRA.VDW.0>
0

>  <SCORE.INTRA.norm>
0

>  <SCORE.RESTR>
0

>  <SCORE.RESTR.CAVITY>
0

>  <SCORE.RESTR.norm>
0

>  <SCORE.SYSTEM>
0

>  <SCORE.SYSTEM.CONST>
0

>  <SCORE.SYSTEM.DIHEDRAL>
0

>  <SCORE.SYSTEM.SOLV>
0

>  <SCORE.SYSTEM.norm>
0

>  <SCORE.heavy>
12

>  <SCORE.norm>
-1.173

>  <RMSD>
0.428

$$$$
ligand
 OpenBabel02271912143D
libRbt.so/2013.1/901 2013/11/27
 12 13  0  0  0  0  0  0  0  0999 V2000
    6.6670   17.4992    1.7395 C   0  0  0  0  0  0  0  0  0  0  0  0
    5.2918   16.3082    3.1973 C   0  0  0  0  0  0  0  0  0  0  0  0
    7.1615   17.6610    0.5155 N   0  0  0  0  0  0  0  0  0  0  0  0
    4.4599   15.3005    3.4830 N   0  0  0  0  0  0  0  0  0  0  0  0
    5.8206   16.4735    1.9776 N   0  0  0  0  0  0  0  0  0  0  0  0
    6.9958   18.3751    2.7149 N   0  0  0  0  0  0  0  0  0  0  0  0
    5.4430   17.9177    6.5221 N   0  0  0  0  0  0  0  0  0  0  0  0
    6.3211   18.9745    6.2360 C   0  0  0  0  0  0  0  0  0  0  0  0
    6.8546   19.1176    4.9339 N   0  0  0  0  0  0  0  0  0  0  0  0
    6.4953   18.2439    3.9688 C   0  0  0  0  0  0  0  0  0  0  0  0
    5.6125   17.1922    4.2349 C   0  0  0  0  0  0  0  0  0  0  0  0
    5.0748   17.0117    5.5079 C   0  0  0  0  0  0  0  0  0  0  0  0
  1  3  1  0  0  0  0
  1  5  1  0  0  0  0
  1  6  2  0  0  0  0
  2  5  2  0  0  0  0
  2 11  1  0  0  0  0
  2  4  1  0  0  0  0
  6 10  1  0  0  0  0
  7  8  2  0  0  0  0
  7 12  1  0  0  0  0
  8  9  1  0  0  0  0
  9 10  2  0  0  0  0
 10 11  1  0  0  0  0
 11 12  2  0  0  0  0
M  END
>  <CHROM.1>
6.02462945,17.50378829,3.72234204,-1.35217702,0.88749187,1.16659094

>  <Name>
ligand

>  <RI>
0

>  <Rbt.Current_Directory>
/home/itssahil/PROJECTS/Mol_Feturizer/Test_systems_manuscript/rnas/4lx5

>  <Rbt.Executable>
rbdock ($Id: //depot/dev/client3/rdock/2013.1/src/exe/rbdock.cxx#4 $)

>  <Rbt.Library>
libRbt.so (2013.1, Build901 2013/11/27)

>  <Rbt.Parameter_File>
/export/apps/rDock/src/rDock_2013.1_src/data/scripts/dock_solv.prm

>  <Rbt.Receptor>
prm/pocket_docking_3.prm

>  <SCORE>
-14.0332

>  <SCORE.INTER>
-14.0332

>  <SCORE.INTER.CONST>
1

>  <SCORE.INTER.POLAR>
0

>  <SCORE.INTER.ROT>
0

>  <SCORE.INTER.SOLV>
18.6101

>  <SCORE.INTER.VDW>
-19.1588

>  <SCORE.INTER.norm>
-1.16943

>  <SCORE.INTRA>
0

>  <SCORE.INTRA.DIHEDRAL>
0

>  <SCORE.INTRA.DIHEDRAL.0>
0

>  <SCORE.INTRA.POLAR>
0

>  <SCORE.INTRA.POLAR.0>
0

>  <SCORE.INTRA.REPUL>
0

>  <SCORE.INTRA.REPUL.0>
0

>  <SCORE.INTRA.SOLV>
0

>  <SCORE.INTRA.SOLV.lig_0>
-48.1583

>  <SCORE.INTRA.VDW>
0

>  <SCORE.INTRA.VDW.0>
0

>  <SCORE.INTRA.norm>
0

>  <SCORE.RESTR>
0

>  <SCORE.RESTR.CAVITY>
0

>  <SCORE.RESTR.norm>
0

>  <SCORE.SYSTEM>
0

>  <SCORE.SYSTEM.CONST>
0

>  <SCORE.SYSTEM.DIHEDRAL>
0

>  <SCORE.SYSTEM.SOLV>
0

>  <SCORE.SYSTEM.norm>
0

>  <SCORE.heavy>
12

>  <SCORE.norm>
-1.16943

>  <RMSD>
0.429

$$$$
ligand
 OpenBabel02271912143D
libRbt.so/2013.1/901 2013/11/27
 12 13  0  0  0  0  0  0  0  0999 V2000
    6.6803   17.5475    1.7466 C   0  0  0  0  0  0  0  0  0  0  0  0
    5.3404   16.3061    3.1953 C   0  0  0  0  0  0  0  0  0  0  0  0
    7.1731   17.7303    0.5249 N   0  0  0  0  0  0  0  0  0  0  0  0
    4.5414   15.2704    3.4743 N   0  0  0  0  0  0  0  0  0  0  0  0
    5.8674   16.4935    1.9780 N   0  0  0  0  0  0  0  0  0  0  0  0
    6.9767   18.4300    2.7264 N   0  0  0  0  0  0  0  0  0  0  0  0
    5.4274   17.9069    6.5265 N   0  0  0  0  0  0  0  0  0  0  0  0
    6.2709   18.9932    6.2474 C   0  0  0  0  0  0  0  0  0  0  0  0
    6.8037   19.1590    4.9477 N   0  0  0  0  0  0  0  0  0  0  0  0
    6.4767   18.2775    3.9781 C   0  0  0  0  0  0  0  0  0  0  0  0
    5.6283   17.1963    4.2372 C   0  0  0  0  0  0  0  0  0  0  0  0
    5.0927   16.9931    5.5076 C   0  0  0  0  0  0  0  0  0  0  0  0
  1  3  1  0  0  0  0
  1  5  1  0  0  0  0
  1  6  2  0  0  0  0
  2  5  2  0  0  0  0
  2 11  1  0  0  0  0
  2  4  1  0  0  0  0
  6 10  1  0  0  0  0
  7  8  2  0  0  0  0
  7 12  1  0  0  0  0
  8  9  1  0  0  0  0
  9 10  2  0  0  0  0
 10 11  1  0  0  0  0
 11 12  2  0  0  0  0
M  END
>  <CHROM.1>
6.03157179,17.52325372,3.72723535,-1.32582477,0.91645433,1.14971412

>  <Name>
ligand

>  <RI>
0

>  <Rbt.Current_Directory>
/home/itssahil/PROJECTS/Mol_Feturizer/Test_systems_manuscript/rnas/4lx5

>  <Rbt.Executable>
rbdock ($Id: //depot/dev/client3/rdock/2013.1/src/exe/rbdock.cxx#4 $)

>  <Rbt.Library>
libRbt.so (2013.1, Build901 2013/11/27)

>  <Rbt.Parameter_File>
/export/apps/rDock/src/rDock_2013.1_src/data/scripts/dock_solv.prm

>  <Rbt.Receptor>
prm/pocket_docking_7.prm

>  <SCORE>
-14.1134

>  <SCORE.INTER>
-14.1134

>  <SCORE.INTER.CONST>
1

>  <SCORE.INTER.POLAR>
0

>  <SCORE.INTER.ROT>
0

>  <SCORE.INTER.SOLV>
18.9164

>  <SCORE.INTER.VDW>
-19.3144

>  <SCORE.INTER.norm>
-1.17612

>  <SCORE.INTRA>
0

>  <SCORE.INTRA.DIHEDRAL>
0

>  <SCORE.INTRA.DIHEDRAL.0>
0

>  <SCORE.INTRA.POLAR>
0

>  <SCORE.INTRA.POLAR.0>
0

>  <SCORE.INTRA.REPUL>
0

>  <SCORE.INTRA.REPUL.0>
0

>  <SCORE.INTRA.SOLV>
0

>  <SCORE.INTRA.SOLV.lig_0>
-48.1583

>  <SCORE.INTRA.VDW>
0

>  <SCORE.INTRA.VDW.0>
0

>  <SCORE.INTRA.norm>
0

>  <SCORE.RESTR>
0

>  <SCORE.RESTR.CAVITY>
0

>  <SCORE.RESTR.norm>
0

>  <SCORE.SYSTEM>
0

>  <SCORE.SYSTEM.CONST>
0

>  <SCORE.SYSTEM.DIHEDRAL>
0

>  <SCORE.SYSTEM.SOLV>
0

>  <SCORE.SYSTEM.norm>
0

>  <SCORE.heavy>
12

>  <SCORE.norm>
-1.17612

>  <RMSD>
0.430

$$$$
ligand
 OpenBabel02271912143D
libRbt.so/2013.1/901 2013/11/27
 12 13  0  0  0  0  0  0  0  0999 V2000
    6.6747   17.5497    1.7477 C   0  0  0  0  0  0  0  0  0  0  0  0
    5.3422   16.3026    3.1983 C   0  0  0  0  0  0  0  0  0  0  0  0
    7.1645   17.7348    0.5251 N   0  0  0  0  0  0  0  0  0  0  0  0
    4.5475   15.2638    3.4783 N   0  0  0  0  0  0  0  0  0  0  0  0
    5.8662   16.4925    1.9801 N   0  0  0  0  0  0  0  0  0  0  0  0
    6.9697   18.4328    2.7274 N   0  0  0  0  0  0  0  0  0  0  0  0
    5.4297   17.9021    6.5302 N   0  0  0  0  0  0  0  0  0  0  0  0
    6.2686   18.9916    6.2500 C   0  0  0  0  0  0  0  0  0  0  0  0
    6.7984   19.1600    4.9493 N   0  0  0  0  0  0  0  0  0  0  0  0
    6.4727   18.2778    3.9799 C   0  0  0  0  0  0  0  0  0  0  0  0
    5.6288   17.1933    4.2401 C   0  0  0  0  0  0  0  0  0  0  0  0
    5.0963   16.9876    5.5115 C   0  0  0  0  0  0  0  0  0  0  0  0
  1  3  1  0  0  0  0
  1  5  1  0  0  0  0
  1  6  2  0  0  0  0
  2  5  2  0  0  0  0
  2 11  1  0  0  0  0
  2  4  1  0  0  0  0
  6 10  1  0  0  0  0
  7  8  2  0  0  0  0
  7 12  1  0  0  0  0
  8  9  1  0  0  0  0
  9 10  2  0  0  0  0
 10 11  1  0  0  0  0
 11 12  2  0  0  0  0
M  END
>  <CHROM.1>
6.02987491,17.52202079,3.72953756,-1.32623456,0.92060220,1.15053258

>  <Name>
ligand

>  <RI>
0

>  <Rbt.Current_Directory>
/home/itssahil/PROJECTS/Mol_Feturizer/Test_systems_manuscript/rnas/4lx5

>  <Rbt.Executable>
rbdock ($Id: //depot/dev/client3/rdock/2013.1/src/exe/rbdock.cxx#4 $)

>  <Rbt.Library>
libRbt.so (2013.1, Build901 2013/11/27)

>  <Rbt.Parameter_File>
/export/apps/rDock/src/rDock_2013.1_src/data/scripts/dock_solv.prm

>  <Rbt.Receptor>
prm/pocket_docking_5.prm

>  <SCORE>
-14.1157

>  <SCORE.INTER>
-14.1157

>  <SCORE.INTER.CONST>
1

>  <SCORE.INTER.POLAR>
0

>  <SCORE.INTER.ROT>
0

>  <SCORE.INTER.SOLV>
18.9393

>  <SCORE.INTER.VDW>
-19.3236

>  <SCORE.INTER.norm>
-1.17631

>  <SCORE.INTRA>
0

>  <SCORE.INTRA.DIHEDRAL>
0

>  <SCORE.INTRA.DIHEDRAL.0>
0

>  <SCORE.INTRA.POLAR>
0

>  <SCORE.INTRA.POLAR.0>
0

>  <SCORE.INTRA.REPUL>
0

>  <SCORE.INTRA.REPUL.0>
0

>  <SCORE.INTRA.SOLV>
0

>  <SCORE.INTRA.SOLV.lig_0>
-48.1583

>  <SCORE.INTRA.VDW>
0

>  <SCORE.INTRA.VDW.0>
0

>  <SCORE.INTRA.norm>
0

>  <SCORE.RESTR>
0

>  <SCORE.RESTR.CAVITY>
0

>  <SCORE.RESTR.norm>
0

>  <SCORE.SYSTEM>
0

>  <SCORE.SYSTEM.CONST>
0

>  <SCORE.SYSTEM.DIHEDRAL>
0

>  <SCORE.SYSTEM.SOLV>
0

>  <SCORE.SYSTEM.norm>
0

>  <SCORE.heavy>
12

>  <SCORE.norm>
-1.17631

>  <RMSD>
0.432

$$$$
ligand
 OpenBabel02271912143D
libRbt.so/2013.1/901 2013/11/27
 12 13  0  0  0  0  0  0  0  0999 V2000
    6.6863   17.5529    1.7518 C   0  0  0  0  0  0  0  0  0  0  0  0
    5.3456   16.3085    3.1970 C   0  0  0  0  0  0  0  0  0  0  0  0
    7.1798   17.7383    0.5307 N   0  0  0  0  0  0  0  0  0  0  0  0
    4.5462   15.2723    3.4733 N   0  0  0  0  0  0  0  0  0  0  0  0
    5.8732   16.4985    1.9804 N   0  0  0  0  0  0  0  0  0  0  0  0
    6.9824   18.4332    2.7337 N   0  0  0  0  0  0  0  0  0  0  0  0
    5.4312   17.9019    6.5319 N   0  0  0  0  0  0  0  0  0  0  0  0
    6.2750   18.9887    6.2555 C   0  0  0  0  0  0  0  0  0  0  0  0
    6.8085   19.1573    4.9565 N   0  0  0  0  0  0  0  0  0  0  0  0
    6.4818   18.2780    3.9848 C   0  0  0  0  0  0  0  0  0  0  0  0
    5.6331   17.1963    4.2410 C   0  0  0  0  0  0  0  0  0  0  0  0
    5.0968   16.9904    5.5108 C   0  0  0  0  0  0  0  0  0  0  0  0
  1  3  1  0  0  0  0
  1  5  1  0  0  0  0
  1  6  2  0  0  0  0
  2  5  2  0  0  0  0
  2 11  1  0  0  0  0
  2  4  1  0  0  0  0
  6 10  1  0  0  0  0
  7  8  2  0  0  0  0
  7 12  1  0  0  0  0
  8  9  1  0  0  0  0
  9 10  2  0  0  0  0
 10 11  1  0  0  0  0
 11 12  2  0  0  0  0
M  END
>  <CHROM.1>
6.03665434,17.52436861,3.73201228,-1.32520410,0.91610335,1.15144226

>  <Name>
ligand

>  <RI>
0

>  <Rbt.Current_Directory>
/home/itssahil/PROJECTS/Mol_Feturizer/Test_systems_manuscript/rnas/4lx5

>  <Rbt.Executable>
rbdock ($Id: //depot/dev/client3/rdock/2013.1/src/exe/rbdock.cxx#4 $)

>  <Rbt.Library>
libRbt.so (2013.1, Build901 2013/11/27)

>  <Rbt.Parameter_File>
/export/apps/rDock/src/rDock_2013.1_src/data/scripts/dock_solv.prm

>  <Rbt.Receptor>
prm/pocket_docking_6.prm

>  <SCORE>
-14.1137

>  <SCORE.INTER>
-14.1137

>  <SCORE.INTER.CONST>
1

>  <SCORE.INTER.POLAR>
0

>  <SCORE.INTER.ROT>
0

>  <SCORE.INTER.SOLV>
18.9346

>  <SCORE.INTER.VDW>
-19.3207

>  <SCORE.INTER.norm>
-1.17614

>  <SCORE.INTRA>
0

>  <SCORE.INTRA.DIHEDRAL>
0

>  <SCORE.INTRA.DIHEDRAL.0>
0

>  <SCORE.INTRA.POLAR>
0

>  <SCORE.INTRA.POLAR.0>
0

>  <SCORE.INTRA.REPUL>
0

>  <SCORE.INTRA.REPUL.0>
0

>  <SCORE.INTRA.SOLV>
0

>  <SCORE.INTRA.SOLV.lig_0>
-48.1583

>  <SCORE.INTRA.VDW>
0

>  <SCORE.INTRA.VDW.0>
0

>  <SCORE.INTRA.norm>
0

>  <SCORE.RESTR>
0

>  <SCORE.RESTR.CAVITY>
0

>  <SCORE.RESTR.norm>
0

>  <SCORE.SYSTEM>
0

>  <SCORE.SYSTEM.CONST>
0

>  <SCORE.SYSTEM.DIHEDRAL>
0

>  <SCORE.SYSTEM.SOLV>
0

>  <SCORE.SYSTEM.norm>
0

>  <SCORE.heavy>
12

>  <SCORE.norm>
-1.17614

>  <RMSD>
0.432

$$$$
ligand
 OpenBabel02271912143D
libRbt.so/2013.1/901 2013/11/27
 12 13  0  0  0  0  0  0  0  0999 V2000
    6.6836   17.5371    1.7491 C   0  0  0  0  0  0  0  0  0  0  0  0
    5.3671   16.2818    3.2072 C   0  0  0  0  0  0  0  0  0  0  0  0
    7.1713   17.7210    0.5255 N   0  0  0  0  0  0  0  0  0  0  0  0
    4.5860   15.2345    3.4935 N   0  0  0  0  0  0  0  0  0  0  0  0
    5.8889   16.4709    1.9879 N   0  0  0  0  0  0  0  0  0  0  0  0
    6.9669   18.4300    2.7233 N   0  0  0  0  0  0  0  0  0  0  0  0
    5.4330   17.9029    6.5291 N   0  0  0  0  0  0  0  0  0  0  0  0
    6.2577   19.0015    6.2422 C   0  0  0  0  0  0  0  0  0  0  0  0
    6.7855   19.1687    4.9406 N   0  0  0  0  0  0  0  0  0  0  0  0
    6.4717   18.2764    3.9767 C   0  0  0  0  0  0  0  0  0  0  0  0
    5.6419   17.1826    4.2435 C   0  0  0  0  0  0  0  0  0  0  0  0
    5.1118   16.9778    5.5160 C   0  0  0  0  0  0  0  0  0  0  0  0
  1  3  1  0  0  0  0
  1  5  1  0  0  0  0
  1  6  2  0  0  0  0
  2  5  2  0  0  0  0
  2 11  1  0  0  0  0
  2  4  1  0  0  0  0
  6 10  1  0  0  0  0
  7  8  2  0  0  0  0
  7 12  1  0  0  0  0
  8  9  1  0  0  0  0
  9 10  2  0  0  0  0
 10 11  1  0  0  0  0
 11 12  2  0  0  0  0
M  END
>  <CHROM.1>
6.03874506,17.51333708,3.73094707,-1.31694987,0.93237618,1.13689977

>  <Name>
ligand

>  <RI>
0

>  <Rbt.Current_Directory>
/home/itssahil/PROJECTS/Mol_Feturizer/Test_systems_manuscript/rnas/4lx5

>  <Rbt.Executable>
rbdock ($Id: //depot/dev/client3/rdock/2013.1/src/exe/rbdock.cxx#4 $)

>  <Rbt.Library>
libRbt.so (2013.1, Build901 2013/11/27)

>  <Rbt.Parameter_File>
/export/apps/rDock/src/rDock_2013.1_src/data/scripts/dock_solv.prm

>  <Rbt.Receptor>
prm/pocket_docking_8.prm

>  <SCORE>
-14.1181

>  <SCORE.INTER>
-14.1181

>  <SCORE.INTER.CONST>
1

>  <SCORE.INTER.POLAR>
0

>  <SCORE.INTER.ROT>
0

>  <SCORE.INTER.SOLV>
19.0965

>  <SCORE.INTER.VDW>
-19.3776

>  <SCORE.INTER.norm>
-1.17651

>  <SCORE.INTRA>
0

>  <SCORE.INTRA.DIHEDRAL>
0

>  <SCORE.INTRA.DIHEDRAL.0>
0

>  <SCORE.INTRA.POLAR>
0

>  <SCORE.INTRA.POLAR.0>
0

>  <SCORE.INTRA.REPUL>
0

>  <SCORE.INTRA.REPUL.0>
0

>  <SCORE.INTRA.SOLV>
0

>  <SCORE.INTRA.SOLV.lig_0>
-48.1583

>  <SCORE.INTRA.VDW>
0

>  <SCORE.INTRA.VDW.0>
0

>  <SCORE.INTRA.norm>
0

>  <SCORE.RESTR>
0

>  <SCORE.RESTR.CAVITY>
0

>  <SCORE.RESTR.norm>
0

>  <SCORE.SYSTEM>
0

>  <SCORE.SYSTEM.CONST>
0

>  <SCORE.SYSTEM.DIHEDRAL>
0

>  <SCORE.SYSTEM.SOLV>
0

>  <SCORE.SYSTEM.norm>
0

>  <SCORE.heavy>
12

>  <SCORE.norm>
-1.17651

>  <RMSD>
0.432

$$$$
ligand
 OpenBabel02271912143D
libRbt.so/2013.1/901 2013/11/27
 12 13  0  0  0  0  0  0  0  0999 V2000
    6.6912   17.5574    1.7566 C   0  0  0  0  0  0  0  0  0  0  0  0
    5.3510   16.3052    3.1957 C   0  0  0  0  0  0  0  0  0  0  0  0
    7.1888   17.7459    0.5378 N   0  0  0  0  0  0  0  0  0  0  0  0
    4.5561   15.2646    3.4683 N   0  0  0  0  0  0  0  0  0  0  0  0
    5.8828   16.4985    1.9814 N   0  0  0  0  0  0  0  0  0  0  0  0
    6.9784   18.4388    2.7401 N   0  0  0  0  0  0  0  0  0  0  0  0
    5.4139   17.8978    6.5315 N   0  0  0  0  0  0  0  0  0  0  0  0
    6.2531   18.9892    6.2592 C   0  0  0  0  0  0  0  0  0  0  0  0
    6.7912   19.1611    4.9624 N   0  0  0  0  0  0  0  0  0  0  0  0
    6.4733   18.2805    3.9890 C   0  0  0  0  0  0  0  0  0  0  0  0
    5.6293   17.1942    4.2413 C   0  0  0  0  0  0  0  0  0  0  0  0
    5.0888   16.9849    5.5087 C   0  0  0  0  0  0  0  0  0  0  0  0
  1  3  1  0  0  0  0
  1  5  1  0  0  0  0
  1  6  2  0  0  0  0
  2  5  2  0  0  0  0
  2 11  1  0  0  0  0
  2  4  1  0  0  0  0
  6 10  1  0  0  0  0
  7  8  2  0  0  0  0
  7 12  1  0  0  0  0
  8  9  1  0  0  0  0
  9 10  2  0  0  0  0
 10 11  1  0  0  0  0
 11 12  2  0  0  0  0
M  END
>  <CHROM.1>
6.03329280,17.52456524,3.73410997,-1.31522718,0.91926094,1.14388530

>  <Name>
ligand

>  <RI>
0

>  <Rbt.Current_Directory>
/home/itssahil/PROJECTS/Mol_Feturizer/Test_systems_manuscript/rnas/4lx5

>  <Rbt.Executable>
rbdock ($Id: //depot/dev/client3/rdock/2013.1/src/exe/rbdock.cxx#4 $)

>  <Rbt.Library>
libRbt.so (2013.1, Build901 2013/11/27)

>  <Rbt.Parameter_File>
/export/apps/rDock/src/rDock_2013.1_src/data/scripts/dock_solv.prm

>  <Rbt.Receptor>
prm/pocket_docking_8.prm

>  <SCORE>
-14.1132

>  <SCORE.INTER>
-14.1132

>  <SCORE.INTER.CONST>
1

>  <SCORE.INTER.POLAR>
0

>  <SCORE.INTER.ROT>
0

>  <SCORE.INTER.SOLV>
18.9905

>  <SCORE.INTER.VDW>
-19.339

>  <SCORE.INTER.norm>
-1.1761

>  <SCORE.INTRA>
0

>  <SCORE.INTRA.DIHEDRAL>
0

>  <SCORE.INTRA.DIHEDRAL.0>
0

>  <SCORE.INTRA.POLAR>
0

>  <SCORE.INTRA.POLAR.0>
0

>  <SCORE.INTRA.REPUL>
0

>  <SCORE.INTRA.REPUL.0>
0

>  <SCORE.INTRA.SOLV>
0

>  <SCORE.INTRA.SOLV.lig_0>
-48.1583

>  <SCORE.INTRA.VDW>
0

>  <SCORE.INTRA.VDW.0>
0

>  <SCORE.INTRA.norm>
0

>  <SCORE.RESTR>
0

>  <SCORE.RESTR.CAVITY>
0

>  <SCORE.RESTR.norm>
0

>  <SCORE.SYSTEM>
0

>  <SCORE.SYSTEM.CONST>
0

>  <SCORE.SYSTEM.DIHEDRAL>
0

>  <SCORE.SYSTEM.SOLV>
0

>  <SCORE.SYSTEM.norm>
0

>  <SCORE.heavy>
12

>  <SCORE.norm>
-1.1761

>  <RMSD>
0.432

$$$$
ligand
 OpenBabel02271912143D
libRbt.so/2013.1/901 2013/11/27
 12 13  0  0  0  0  0  0  0  0999 V2000
    6.7187   17.5296    1.7636 C   0  0  0  0  0  0  0  0  0  0  0  0
    5.3968   16.2673    3.2106 C   0  0  0  0  0  0  0  0  0  0  0  0
    7.2182   17.7143    0.5449 N   0  0  0  0  0  0  0  0  0  0  0  0
    4.6211   15.2144    3.4913 N   0  0  0  0  0  0  0  0  0  0  0  0
    5.9302   16.4576    1.9966 N   0  0  0  0  0  0  0  0  0  0  0  0
    6.9840   18.4274    2.7384 N   0  0  0  0  0  0  0  0  0  0  0  0
    5.4130   17.8976    6.5287 N   0  0  0  0  0  0  0  0  0  0  0  0
    6.2319   19.0022    6.2479 C   0  0  0  0  0  0  0  0  0  0  0  0
    6.7725   19.1703    4.9517 N   0  0  0  0  0  0  0  0  0  0  0  0
    6.4764   18.2730    3.9868 C   0  0  0  0  0  0  0  0  0  0  0  0
    5.6528   17.1731    4.2474 C   0  0  0  0  0  0  0  0  0  0  0  0
    5.1106   16.9673    5.5147 C   0  0  0  0  0  0  0  0  0  0  0  0
  1  3  1  0  0  0  0
  1  5  1  0  0  0  0
  1  6  2  0  0  0  0
  2  5  2  0  0  0  0
  2 11  1  0  0  0  0
  2  4  1  0  0  0  0
  6 10  1  0  0  0  0
  7  8  2  0  0  0  0
  7 12  1  0  0  0  0
  8  9  1  0  0  0  0
  9 10  2  0  0  0  0
 10 11  1  0  0  0  0
 11 12  2  0  0  0  0
M  END
>  <CHROM.1>
6.05249287,17.50573528,3.73837989,-1.29446807,0.93509690,1.11617224

>  <Name>
ligand

>  <RI>
0

>  <Rbt.Current_Directory>
/home/itssahil/PROJECTS/Mol_Feturizer/Test_systems_manuscript/rnas/4lx5

>  <Rbt.Executable>
rbdock ($Id: //depot/dev/client3/rdock/2013.1/src/exe/rbdock.cxx#4 $)

>  <Rbt.Library>
libRbt.so (2013.1, Build901 2013/11/27)

>  <Rbt.Parameter_File>
/export/apps/rDock/src/rDock_2013.1_src/data/scripts/dock_solv.prm

>  <Rbt.Receptor>
prm/pocket_docking_4.prm

>  <SCORE>
-14.0858

>  <SCORE.INTER>
-14.0858

>  <SCORE.INTER.CONST>
1

>  <SCORE.INTER.POLAR>
0

>  <SCORE.INTER.ROT>
0

>  <SCORE.INTER.SOLV>
19.3032

>  <SCORE.INTER.VDW>
-19.425

>  <SCORE.INTER.norm>
-1.17382

>  <SCORE.INTRA>
0

>  <SCORE.INTRA.DIHEDRAL>
0

>  <SCORE.INTRA.DIHEDRAL.0>
0

>  <SCORE.INTRA.POLAR>
0

>  <SCORE.INTRA.POLAR.0>
0

>  <SCORE.INTRA.REPUL>
0

>  <SCORE.INTRA.REPUL.0>
0

>  <SCORE.INTRA.SOLV>
0

>  <SCORE.INTRA.SOLV.lig_0>
-48.1583

>  <SCORE.INTRA.VDW>
0

>  <SCORE.INTRA.VDW.0>
0

>  <SCORE.INTRA.norm>
0

>  <SCORE.RESTR>
0

>  <SCORE.RESTR.CAVITY>
0

>  <SCORE.RESTR.norm>
0

>  <SCORE.SYSTEM>
0

>  <SCORE.SYSTEM.CONST>
0

>  <SCORE.SYSTEM.DIHEDRAL>
0

>  <SCORE.SYSTEM.SOLV>
0

>  <SCORE.SYSTEM.norm>
0

>  <SCORE.heavy>
12

>  <SCORE.norm>
-1.17382

>  <RMSD>
0.433

$$$$
ligand
 OpenBabel02271912143D
libRbt.so/2013.1/901 2013/11/27
 12 13  0  0  0  0  0  0  0  0999 V2000
    6.6735   17.5498    1.7487 C   0  0  0  0  0  0  0  0  0  0  0  0
    5.3401   16.3041    3.1996 C   0  0  0  0  0  0  0  0  0  0  0  0
    7.1633   17.7344    0.5260 N   0  0  0  0  0  0  0  0  0  0  0  0
    4.5444   15.2661    3.4798 N   0  0  0  0  0  0  0  0  0  0  0  0
    5.8640   16.4935    1.9813 N   0  0  0  0  0  0  0  0  0  0  0  0
    6.9697   18.4326    2.7283 N   0  0  0  0  0  0  0  0  0  0  0  0
    5.4299   17.9035    6.5315 N   0  0  0  0  0  0  0  0  0  0  0  0
    6.2700   18.9922    6.2510 C   0  0  0  0  0  0  0  0  0  0  0  0
    6.7996   19.1600    4.9503 N   0  0  0  0  0  0  0  0  0  0  0  0
    6.4728   18.2782    3.9810 C   0  0  0  0  0  0  0  0  0  0  0  0
    5.6278   17.1945    4.2413 C   0  0  0  0  0  0  0  0  0  0  0  0
    5.0954   16.9893    5.5129 C   0  0  0  0  0  0  0  0  0  0  0  0
  1  3  1  0  0  0  0
  1  5  1  0  0  0  0
  1  6  2  0  0  0  0
  2  5  2  0  0  0  0
  2 11  1  0  0  0  0
  2  4  1  0  0  0  0
  6 10  1  0  0  0  0
  7  8  2  0  0  0  0
  7 12  1  0  0  0  0
  8  9  1  0  0  0  0
  9 10  2  0  0  0  0
 10 11  1  0  0  0  0
 11 12  2  0  0  0  0
M  END
>  <CHROM.1>
6.02912751,17.52280400,3.73069072,-1.32725770,0.91975318,1.15133629

>  <Name>
ligand

>  <RI>
0

>  <Rbt.Current_Directory>
/home/itssahil/PROJECTS/Mol_Feturizer/Test_systems_manuscript/rnas/4lx5

>  <Rbt.Executable>
rbdock ($Id: //depot/dev/client3/rdock/2013.1/src/exe/rbdock.cxx#4 $)

>  <Rbt.Library>
libRbt.so (2013.1, Build901 2013/11/27)

>  <Rbt.Parameter_File>
/export/apps/rDock/src/rDock_2013.1_src/data/scripts/dock_solv.prm

>  <Rbt.Receptor>
prm/pocket_docking_8.prm

>  <SCORE>
-14.1158

>  <SCORE.INTER>
-14.1158

>  <SCORE.INTER.CONST>
1

>  <SCORE.INTER.POLAR>
0

>  <SCORE.INTER.ROT>
0

>  <SCORE.INTER.SOLV>
18.9251

>  <SCORE.INTER.VDW>
-19.3189

>  <SCORE.INTER.norm>
-1.17631

>  <SCORE.INTRA>
0

>  <SCORE.INTRA.DIHEDRAL>
0

>  <SCORE.INTRA.DIHEDRAL.0>
0

>  <SCORE.INTRA.POLAR>
0

>  <SCORE.INTRA.POLAR.0>
0

>  <SCORE.INTRA.REPUL>
0

>  <SCORE.INTRA.REPUL.0>
0

>  <SCORE.INTRA.SOLV>
0

>  <SCORE.INTRA.SOLV.lig_0>
-48.1583

>  <SCORE.INTRA.VDW>
0

>  <SCORE.INTRA.VDW.0>
0

>  <SCORE.INTRA.norm>
0

>  <SCORE.RESTR>
0

>  <SCORE.RESTR.CAVITY>
0

>  <SCORE.RESTR.norm>
0

>  <SCORE.SYSTEM>
0

>  <SCORE.SYSTEM.CONST>
0

>  <SCORE.SYSTEM.DIHEDRAL>
0

>  <SCORE.SYSTEM.SOLV>
0

>  <SCORE.SYSTEM.norm>
0

>  <SCORE.heavy>
12

>  <SCORE.norm>
-1.17631

>  <RMSD>
0.433

$$$$
ligand
 OpenBabel02271912143D
libRbt.so/2013.1/901 2013/11/27
 12 13  0  0  0  0  0  0  0  0999 V2000
    6.6858   17.5526    1.7532 C   0  0  0  0  0  0  0  0  0  0  0  0
    5.3495   16.3051    3.1999 C   0  0  0  0  0  0  0  0  0  0  0  0
    7.1787   17.7383    0.5320 N   0  0  0  0  0  0  0  0  0  0  0  0
    4.5540   15.2663    3.4775 N   0  0  0  0  0  0  0  0  0  0  0  0
    5.8766   16.4955    1.9831 N   0  0  0  0  0  0  0  0  0  0  0  0
    6.9785   18.4352    2.7340 N   0  0  0  0  0  0  0  0  0  0  0  0
    5.4287   17.9030    6.5327 N   0  0  0  0  0  0  0  0  0  0  0  0
    6.2686   18.9926    6.2551 C   0  0  0  0  0  0  0  0  0  0  0  0
    6.8016   19.1615    4.9559 N   0  0  0  0  0  0  0  0  0  0  0  0
    6.4783   18.2798    3.9853 C   0  0  0  0  0  0  0  0  0  0  0  0
    5.6336   17.1953    4.2428 C   0  0  0  0  0  0  0  0  0  0  0  0
    5.0979   16.9890    5.5128 C   0  0  0  0  0  0  0  0  0  0  0  0
  1  3  1  0  0  0  0
  1  5  1  0  0  0  0
  1  6  2  0  0  0  0
  2  5  2  0  0  0  0
  2 11  1  0  0  0  0
  2  4  1  0  0  0  0
  6 10  1  0  0  0  0
  7  8  2  0  0  0  0
  7 12  1  0  0  0  0
  8  9  1  0  0  0  0
  9 10  2  0  0  0  0
 10 11  1  0  0  0  0
 11 12  2  0  0  0  0
M  END
>  <CHROM.1>
6.03598406,17.52416583,3.73340943,-1.32252242,0.91944764,1.14803193

>  <Name>
ligand

>  <RI>
0

>  <Rbt.Current_Directory>
/home/itssahil/PROJECTS/Mol_Feturizer/Test_systems_manuscript/rnas/4lx5

>  <Rbt.Executable>
rbdock ($Id: //depot/dev/client3/rdock/2013.1/src/exe/rbdock.cxx#4 $)

>  <Rbt.Library>
libRbt.so (2013.1, Build901 2013/11/27)

>  <Rbt.Parameter_File>
/export/apps/rDock/src/rDock_2013.1_src/data/scripts/dock_solv.prm

>  <Rbt.Receptor>
prm/pocket_docking_5.prm

>  <SCORE>
-14.1162

>  <SCORE.INTER>
-14.1162

>  <SCORE.INTER.CONST>
1

>  <SCORE.INTER.POLAR>
0

>  <SCORE.INTER.ROT>
0

>  <SCORE.INTER.SOLV>
18.9671

>  <SCORE.INTER.VDW>
-19.3332

>  <SCORE.INTER.norm>
-1.17635

>  <SCORE.INTRA>
0

>  <SCORE.INTRA.DIHEDRAL>
0

>  <SCORE.INTRA.DIHEDRAL.0>
0

>  <SCORE.INTRA.POLAR>
0

>  <SCORE.INTRA.POLAR.0>
0

>  <SCORE.INTRA.REPUL>
0

>  <SCORE.INTRA.REPUL.0>
0

>  <SCORE.INTRA.SOLV>
0

>  <SCORE.INTRA.SOLV.lig_0>
-48.1583

>  <SCORE.INTRA.VDW>
0

>  <SCORE.INTRA.VDW.0>
0

>  <SCORE.INTRA.norm>
0

>  <SCORE.RESTR>
0

>  <SCORE.RESTR.CAVITY>
0

>  <SCORE.RESTR.norm>
0

>  <SCORE.SYSTEM>
0

>  <SCORE.SYSTEM.CONST>
0

>  <SCORE.SYSTEM.DIHEDRAL>
0

>  <SCORE.SYSTEM.SOLV>
0

>  <SCORE.SYSTEM.norm>
0

>  <SCORE.heavy>
12

>  <SCORE.norm>
-1.17635

>  <RMSD>
0.434

$$$$
ligand
 OpenBabel02271912143D
libRbt.so/2013.1/901 2013/11/27
 12 13  0  0  0  0  0  0  0  0999 V2000
    6.6745   17.5485    1.7521 C   0  0  0  0  0  0  0  0  0  0  0  0
    5.3384   16.3021    3.1999 C   0  0  0  0  0  0  0  0  0  0  0  0
    7.1677   17.7329    0.5307 N   0  0  0  0  0  0  0  0  0  0  0  0
    4.5433   15.2633    3.4786 N   0  0  0  0  0  0  0  0  0  0  0  0
    5.8657   16.4913    1.9830 N   0  0  0  0  0  0  0  0  0  0  0  0
    6.9664   18.4325    2.7318 N   0  0  0  0  0  0  0  0  0  0  0  0
    5.4159   17.9043    6.5307 N   0  0  0  0  0  0  0  0  0  0  0  0
    6.2552   18.9940    6.2520 C   0  0  0  0  0  0  0  0  0  0  0  0
    6.7885   19.1615    4.9527 N   0  0  0  0  0  0  0  0  0  0  0  0
    6.4660   18.2784    3.9831 C   0  0  0  0  0  0  0  0  0  0  0  0
    5.6217   17.1938    4.2418 C   0  0  0  0  0  0  0  0  0  0  0  0
    5.0858   16.9889    5.5118 C   0  0  0  0  0  0  0  0  0  0  0  0
  1  3  1  0  0  0  0
  1  5  1  0  0  0  0
  1  6  2  0  0  0  0
  2  5  2  0  0  0  0
  2 11  1  0  0  0  0
  2  4  1  0  0  0  0
  6 10  1  0  0  0  0
  7  8  2  0  0  0  0
  7 12  1  0  0  0  0
  8  9  1  0  0  0  0
  9 10  2  0  0  0  0
 10 11  1  0  0  0  0
 11 12  2  0  0  0  0
M  END
>  <CHROM.1>
6.02411125,17.52225245,3.73210131,-1.32174295,0.91979196,1.14614841

>  <Name>
ligand

>  <RI>
0

>  <Rbt.Current_Directory>
/home/itssahil/PROJECTS/Mol_Feturizer/Test_systems_manuscript/rnas/4lx5

>  <Rbt.Executable>
rbdock ($Id: //depot/dev/client3/rdock/2013.1/src/exe/rbdock.cxx#4 $)

>  <Rbt.Library>
libRbt.so (2013.1, Build901 2013/11/27)

>  <Rbt.Parameter_File>
/export/apps/rDock/src/rDock_2013.1_src/data/scripts/dock_solv.prm

>  <Rbt.Receptor>
prm/pocket_docking_8.prm

>  <SCORE>
-14.1137

>  <SCORE.INTER>
-14.1137

>  <SCORE.INTER.CONST>
1

>  <SCORE.INTER.POLAR>
0

>  <SCORE.INTER.ROT>
0

>  <SCORE.INTER.SOLV>
18.9319

>  <SCORE.INTER.VDW>
-19.3197

>  <SCORE.INTER.norm>
-1.17614

>  <SCORE.INTRA>
0

>  <SCORE.INTRA.DIHEDRAL>
0

>  <SCORE.INTRA.DIHEDRAL.0>
0

>  <SCORE.INTRA.POLAR>
0

>  <SCORE.INTRA.POLAR.0>
0

>  <SCORE.INTRA.REPUL>
0

>  <SCORE.INTRA.REPUL.0>
0

>  <SCORE.INTRA.SOLV>
0

>  <SCORE.INTRA.SOLV.lig_0>
-48.1583

>  <SCORE.INTRA.VDW>
0

>  <SCORE.INTRA.VDW.0>
0

>  <SCORE.INTRA.norm>
0

>  <SCORE.RESTR>
0

>  <SCORE.RESTR.CAVITY>
0

>  <SCORE.RESTR.norm>
0

>  <SCORE.SYSTEM>
0

>  <SCORE.SYSTEM.CONST>
0

>  <SCORE.SYSTEM.DIHEDRAL>
0

>  <SCORE.SYSTEM.SOLV>
0

>  <SCORE.SYSTEM.norm>
0

>  <SCORE.heavy>
12

>  <SCORE.norm>
-1.17614

>  <RMSD>
0.434

$$$$
ligand
 OpenBabel02271912143D
libRbt.so/2013.1/901 2013/11/27
 12 13  0  0  0  0  0  0  0  0999 V2000
    6.6808   17.5521    1.7532 C   0  0  0  0  0  0  0  0  0  0  0  0
    5.3446   16.3062    3.2014 C   0  0  0  0  0  0  0  0  0  0  0  0
    7.1726   17.7371    0.5314 N   0  0  0  0  0  0  0  0  0  0  0  0
    4.5481   15.2684    3.4799 N   0  0  0  0  0  0  0  0  0  0  0  0
    5.8705   16.4960    1.9840 N   0  0  0  0  0  0  0  0  0  0  0  0
    6.9757   18.4344    2.7337 N   0  0  0  0  0  0  0  0  0  0  0  0
    5.4297   17.9041    6.5341 N   0  0  0  0  0  0  0  0  0  0  0  0
    6.2706   18.9927    6.2556 C   0  0  0  0  0  0  0  0  0  0  0  0
    6.8023   19.1609    4.9557 N   0  0  0  0  0  0  0  0  0  0  0  0
    6.4768   18.2796    3.9855 C   0  0  0  0  0  0  0  0  0  0  0  0
    5.6310   17.1961    4.2440 C   0  0  0  0  0  0  0  0  0  0  0  0
    5.0965   16.9905    5.5146 C   0  0  0  0  0  0  0  0  0  0  0  0
  1  3  1  0  0  0  0
  1  5  1  0  0  0  0
  1  6  2  0  0  0  0
  2  5  2  0  0  0  0
  2 11  1  0  0  0  0
  2  4  1  0  0  0  0
  6 10  1  0  0  0  0
  7  8  2  0  0  0  0
  7 12  1  0  0  0  0
  8  9  1  0  0  0  0
  9 10  2  0  0  0  0
 10 11  1  0  0  0  0
 11 12  2  0  0  0  0
M  END
>  <CHROM.1>
6.03324753,17.52448008,3.73415844,-1.32510171,0.91878081,1.15006675

>  <Name>
ligand

>  <RI>
0

>  <Rbt.Current_Directory>
/home/itssahil/PROJECTS/Mol_Feturizer/Test_systems_manuscript/rnas/4lx5

>  <Rbt.Executable>
rbdock ($Id: //depot/dev/client3/rdock/2013.1/src/exe/rbdock.cxx#4 $)

>  <Rbt.Library>
libRbt.so (2013.1, Build901 2013/11/27)

>  <Rbt.Parameter_File>
/export/apps/rDock/src/rDock_2013.1_src/data/scripts/dock_solv.prm

>  <Rbt.Receptor>
prm/pocket_docking_4.prm

>  <SCORE>
-14.1165

>  <SCORE.INTER>
-14.1165

>  <SCORE.INTER.CONST>
1

>  <SCORE.INTER.POLAR>
0

>  <SCORE.INTER.ROT>
0

>  <SCORE.INTER.SOLV>
18.9405

>  <SCORE.INTER.VDW>
-19.3245

>  <SCORE.INTER.norm>
-1.17637

>  <SCORE.INTRA>
0

>  <SCORE.INTRA.DIHEDRAL>
0

>  <SCORE.INTRA.DIHEDRAL.0>
0

>  <SCORE.INTRA.POLAR>
0

>  <SCORE.INTRA.POLAR.0>
0

>  <SCORE.INTRA.REPUL>
0

>  <SCORE.INTRA.REPUL.0>
0

>  <SCORE.INTRA.SOLV>
0

>  <SCORE.INTRA.SOLV.lig_0>
-48.1583

>  <SCORE.INTRA.VDW>
0

>  <SCORE.INTRA.VDW.0>
0

>  <SCORE.INTRA.norm>
0

>  <SCORE.RESTR>
0

>  <SCORE.RESTR.CAVITY>
0

>  <SCORE.RESTR.norm>
0

>  <SCORE.SYSTEM>
0

>  <SCORE.SYSTEM.CONST>
0

>  <SCORE.SYSTEM.DIHEDRAL>
0

>  <SCORE.SYSTEM.SOLV>
0

>  <SCORE.SYSTEM.norm>
0

>  <SCORE.heavy>
12

>  <SCORE.norm>
-1.17637

>  <RMSD>
0.435

$$$$
ligand
 OpenBabel02271912143D
libRbt.so/2013.1/901 2013/11/27
 12 13  0  0  0  0  0  0  0  0999 V2000
    6.6310   17.5572    1.7553 C   0  0  0  0  0  0  0  0  0  0  0  0
    5.2879   16.3019    3.1889 C   0  0  0  0  0  0  0  0  0  0  0  0
    7.1217   17.7554    0.5351 N   0  0  0  0  0  0  0  0  0  0  0  0
    4.4836   15.2667    3.4546 N   0  0  0  0  0  0  0  0  0  0  0  0
    5.8127   16.5045    1.9731 N   0  0  0  0  0  0  0  0  0  0  0  0
    6.9351   18.4232    2.7474 N   0  0  0  0  0  0  0  0  0  0  0  0
    5.3930   17.8521    6.5435 N   0  0  0  0  0  0  0  0  0  0  0  0
    6.2420   18.9376    6.2783 C   0  0  0  0  0  0  0  0  0  0  0  0
    6.7724   19.1198    4.9798 N   0  0  0  0  0  0  0  0  0  0  0  0
    6.4377   18.2549    3.9980 C   0  0  0  0  0  0  0  0  0  0  0  0
    5.5837   17.1747    4.2432 C   0  0  0  0  0  0  0  0  0  0  0  0
    5.0503   16.9557    5.5120 C   0  0  0  0  0  0  0  0  0  0  0  0
  1  3  1  0  0  0  0
  1  5  1  0  0  0  0
  1  6  2  0  0  0  0
  2  5  2  0  0  0  0
  2 11  1  0  0  0  0
  2  4  1  0  0  0  0
  6 10  1  0  0  0  0
  7  8  2  0  0  0  0
  7 12  1  0  0  0  0
  8  9  1  0  0  0  0
  9 10  2  0  0  0  0
 10 11  1  0  0  0  0
 11 12  2  0  0  0  0
M  END
>  <CHROM.1>
5.98747713,17.50697003,3.73711410,-1.33366325,0.91224510,1.17088465

>  <Name>
ligand

>  <RI>
0

>  <Rbt.Current_Directory>
/home/itssahil/PROJECTS/Mol_Feturizer/Test_systems_manuscript/rnas/4lx5

>  <Rbt.Executable>
rbdock ($Id: //depot/dev/client3/rdock/2013.1/src/exe/rbdock.cxx#4 $)

>  <Rbt.Library>
libRbt.so (2013.1, Build901 2013/11/27)

>  <Rbt.Parameter_File>
/export/apps/rDock/src/rDock_2013.1_src/data/scripts/dock_solv.prm

>  <Rbt.Receptor>
prm/pocket_docking_3.prm

>  <SCORE>
-14.0484

>  <SCORE.INTER>
-14.0484

>  <SCORE.INTER.CONST>
1

>  <SCORE.INTER.POLAR>
0

>  <SCORE.INTER.ROT>
0

>  <SCORE.INTER.SOLV>
18.7236

>  <SCORE.INTER.VDW>
-19.2068

>  <SCORE.INTER.norm>
-1.1707

>  <SCORE.INTRA>
0

>  <SCORE.INTRA.DIHEDRAL>
0

>  <SCORE.INTRA.DIHEDRAL.0>
0

>  <SCORE.INTRA.POLAR>
0

>  <SCORE.INTRA.POLAR.0>
0

>  <SCORE.INTRA.REPUL>
0

>  <SCORE.INTRA.REPUL.0>
0

>  <SCORE.INTRA.SOLV>
0

>  <SCORE.INTRA.SOLV.lig_0>
-48.1583

>  <SCORE.INTRA.VDW>
0

>  <SCORE.INTRA.VDW.0>
0

>  <SCORE.INTRA.norm>
0

>  <SCORE.RESTR>
0

>  <SCORE.RESTR.CAVITY>
0

>  <SCORE.RESTR.norm>
0

>  <SCORE.SYSTEM>
0

>  <SCORE.SYSTEM.CONST>
0

>  <SCORE.SYSTEM.DIHEDRAL>
0

>  <SCORE.SYSTEM.SOLV>
0

>  <SCORE.SYSTEM.norm>
0

>  <SCORE.heavy>
12

>  <SCORE.norm>
-1.1707

>  <RMSD>
0.436

$$$$
ligand
 OpenBabel02271912143D
libRbt.so/2013.1/901 2013/11/27
 12 13  0  0  0  0  0  0  0  0999 V2000
    6.6753   17.5541    1.7545 C   0  0  0  0  0  0  0  0  0  0  0  0
    5.3382   16.3063    3.2002 C   0  0  0  0  0  0  0  0  0  0  0  0
    7.1684   17.7405    0.5335 N   0  0  0  0  0  0  0  0  0  0  0  0
    4.5420   15.2677    3.4769 N   0  0  0  0  0  0  0  0  0  0  0  0
    5.8654   16.4973    1.9835 N   0  0  0  0  0  0  0  0  0  0  0  0
    6.9684   18.4358    2.7361 N   0  0  0  0  0  0  0  0  0  0  0  0
    5.4181   17.9016    6.5342 N   0  0  0  0  0  0  0  0  0  0  0  0
    6.2586   18.9909    6.2575 C   0  0  0  0  0  0  0  0  0  0  0  0
    6.7918   19.1605    4.9584 N   0  0  0  0  0  0  0  0  0  0  0  0
    6.4681   18.2797    3.9871 C   0  0  0  0  0  0  0  0  0  0  0  0
    5.6227   17.1955    4.2438 C   0  0  0  0  0  0  0  0  0  0  0  0
    5.0868   16.9886    5.5135 C   0  0  0  0  0  0  0  0  0  0  0  0
  1  3  1  0  0  0  0
  1  5  1  0  0  0  0
  1  6  2  0  0  0  0
  2  5  2  0  0  0  0
  2 11  1  0  0  0  0
  2  4  1  0  0  0  0
  6 10  1  0  0  0  0
  7  8  2  0  0  0  0
  7 12  1  0  0  0  0
  8  9  1  0  0  0  0
  9 10  2  0  0  0  0
 10 11  1  0  0  0  0
 11 12  2  0  0  0  0
M  END
>  <CHROM.1>
6.02533518,17.52455948,3.73467763,-1.32282154,0.91888021,1.14904281

>  <Name>
ligand

>  <RI>
0

>  <Rbt.Current_Directory>
/home/itssahil/PROJECTS/Mol_Feturizer/Test_systems_manuscript/rnas/4lx5

>  <Rbt.Executable>
rbdock ($Id: //depot/dev/client3/rdock/2013.1/src/exe/rbdock.cxx#4 $)

>  <Rbt.Library>
libRbt.so (2013.1, Build901 2013/11/27)

>  <Rbt.Parameter_File>
/export/apps/rDock/src/rDock_2013.1_src/data/scripts/dock_solv.prm

>  <Rbt.Receptor>
prm/pocket_docking_4.prm

>  <SCORE>
-14.1143

>  <SCORE.INTER>
-14.1143

>  <SCORE.INTER.CONST>
1

>  <SCORE.INTER.POLAR>
0

>  <SCORE.INTER.ROT>
0

>  <SCORE.INTER.SOLV>
18.9258

>  <SCORE.INTER.VDW>
-19.3181

>  <SCORE.INTER.norm>
-1.17619

>  <SCORE.INTRA>
0

>  <SCORE.INTRA.DIHEDRAL>
0

>  <SCORE.INTRA.DIHEDRAL.0>
0

>  <SCORE.INTRA.POLAR>
0

>  <SCORE.INTRA.POLAR.0>
0

>  <SCORE.INTRA.REPUL>
0

>  <SCORE.INTRA.REPUL.0>
0

>  <SCORE.INTRA.SOLV>
0

>  <SCORE.INTRA.SOLV.lig_0>
-48.1583

>  <SCORE.INTRA.VDW>
0

>  <SCORE.INTRA.VDW.0>
0

>  <SCORE.INTRA.norm>
0

>  <SCORE.RESTR>
0

>  <SCORE.RESTR.CAVITY>
0

>  <SCORE.RESTR.norm>
0

>  <SCORE.SYSTEM>
0

>  <SCORE.SYSTEM.CONST>
0

>  <SCORE.SYSTEM.DIHEDRAL>
0

>  <SCORE.SYSTEM.SOLV>
0

>  <SCORE.SYSTEM.norm>
0

>  <SCORE.heavy>
12

>  <SCORE.norm>
-1.17619

>  <RMSD>
0.436

$$$$
ligand
 OpenBabel02271912143D
libRbt.so/2013.1/901 2013/11/27
 12 13  0  0  0  0  0  0  0  0999 V2000
    6.6909   17.5579    1.7584 C   0  0  0  0  0  0  0  0  0  0  0  0
    5.3459   16.3138    3.2000 C   0  0  0  0  0  0  0  0  0  0  0  0
    7.1873   17.7435    0.5386 N   0  0  0  0  0  0  0  0  0  0  0  0
    4.5451   15.2781    3.4740 N   0  0  0  0  0  0  0  0  0  0  0  0
    5.8765   16.5040    1.9847 N   0  0  0  0  0  0  0  0  0  0  0  0
    6.9854   18.4375    2.7414 N   0  0  0  0  0  0  0  0  0  0  0  0
    5.4251   17.9055    6.5358 N   0  0  0  0  0  0  0  0  0  0  0  0
    6.2704   18.9918    6.2619 C   0  0  0  0  0  0  0  0  0  0  0  0
    6.8070   19.1606    4.9642 N   0  0  0  0  0  0  0  0  0  0  0  0
    6.4819   18.2821    3.9913 C   0  0  0  0  0  0  0  0  0  0  0  0
    5.6317   17.2009    4.2451 C   0  0  0  0  0  0  0  0  0  0  0  0
    5.0924   16.9948    5.5135 C   0  0  0  0  0  0  0  0  0  0  0  0
  1  3  1  0  0  0  0
  1  5  1  0  0  0  0
  1  6  2  0  0  0  0
  2  5  2  0  0  0  0
  2 11  1  0  0  0  0
  2  4  1  0  0  0  0
  6 10  1  0  0  0  0
  7  8  2  0  0  0  0
  7 12  1  0  0  0  0
  8  9  1  0  0  0  0
  9 10  2  0  0  0  0
 10 11  1  0  0  0  0
 11 12  2  0  0  0  0
M  END
>  <CHROM.1>
6.03670432,17.52887327,3.73716249,-1.32231503,0.91446987,1.14963487

>  <Name>
ligand

>  <RI>
0

>  <Rbt.Current_Directory>
/home/itssahil/PROJECTS/Mol_Feturizer/Test_systems_manuscript/rnas/4lx5

>  <Rbt.Executable>
rbdock ($Id: //depot/dev/client3/rdock/2013.1/src/exe/rbdock.cxx#4 $)

>  <Rbt.Library>
libRbt.so (2013.1, Build901 2013/11/27)

>  <Rbt.Parameter_File>
/export/apps/rDock/src/rDock_2013.1_src/data/scripts/dock_solv.prm

>  <Rbt.Receptor>
prm/pocket_docking_6.prm

>  <SCORE>
-14.1136

>  <SCORE.INTER>
-14.1136

>  <SCORE.INTER.CONST>
1

>  <SCORE.INTER.POLAR>
0

>  <SCORE.INTER.ROT>
0

>  <SCORE.INTER.SOLV>
18.9334

>  <SCORE.INTER.VDW>
-19.3202

>  <SCORE.INTER.norm>
-1.17614

>  <SCORE.INTRA>
0

>  <SCORE.INTRA.DIHEDRAL>
0

>  <SCORE.INTRA.DIHEDRAL.0>
0

>  <SCORE.INTRA.POLAR>
0

>  <SCORE.INTRA.POLAR.0>
0

>  <SCORE.INTRA.REPUL>
0

>  <SCORE.INTRA.REPUL.0>
0

>  <SCORE.INTRA.SOLV>
0

>  <SCORE.INTRA.SOLV.lig_0>
-48.1583

>  <SCORE.INTRA.VDW>
0

>  <SCORE.INTRA.VDW.0>
0

>  <SCORE.INTRA.norm>
0

>  <SCORE.RESTR>
0

>  <SCORE.RESTR.CAVITY>
0

>  <SCORE.RESTR.norm>
0

>  <SCORE.SYSTEM>
0

>  <SCORE.SYSTEM.CONST>
0

>  <SCORE.SYSTEM.DIHEDRAL>
0

>  <SCORE.SYSTEM.SOLV>
0

>  <SCORE.SYSTEM.norm>
0

>  <SCORE.heavy>
12

>  <SCORE.norm>
-1.17614

>  <RMSD>
0.437

$$$$
ligand
 OpenBabel02271912143D
libRbt.so/2013.1/901 2013/11/27
 12 13  0  0  0  0  0  0  0  0999 V2000
    6.6854   17.5782    1.7526 C   0  0  0  0  0  0  0  0  0  0  0  0
    5.3550   16.3192    3.1949 C   0  0  0  0  0  0  0  0  0  0  0  0
    7.1781   17.7700    0.5323 N   0  0  0  0  0  0  0  0  0  0  0  0
    4.5650   15.2753    3.4690 N   0  0  0  0  0  0  0  0  0  0  0  0
    5.8818   16.5159    1.9790 N   0  0  0  0  0  0  0  0  0  0  0  0
    6.9725   18.4596    2.7361 N   0  0  0  0  0  0  0  0  0  0  0  0
    5.4232   17.9083    6.5322 N   0  0  0  0  0  0  0  0  0  0  0  0
    6.2572   19.0032    6.2582 C   0  0  0  0  0  0  0  0  0  0  0  0
    6.7902   19.1787    4.9598 N   0  0  0  0  0  0  0  0  0  0  0  0
    6.4724   18.2979    3.9866 C   0  0  0  0  0  0  0  0  0  0  0  0
    5.6335   17.2081    4.2405 C   0  0  0  0  0  0  0  0  0  0  0  0
    5.0981   16.9953    5.5095 C   0  0  0  0  0  0  0  0  0  0  0  0
  1  3  1  0  0  0  0
  1  5  1  0  0  0  0
  1  6  2  0  0  0  0
  2  5  2  0  0  0  0
  2 11  1  0  0  0  0
  2  4  1  0  0  0  0
  6 10  1  0  0  0  0
  7  8  2  0  0  0  0
  7 12  1  0  0  0  0
  8  9  1  0  0  0  0
  9 10  2  0  0  0  0
 10 11  1  0  0  0  0
 11 12  2  0  0  0  0
M  END
>  <CHROM.1>
6.03440007,17.54059737,3.73230466,-1.31776434,0.92418814,1.14703765

>  <Name>
ligand

>  <RI>
0

>  <Rbt.Current_Directory>
/home/itssahil/PROJECTS/Mol_Feturizer/Test_systems_manuscript/rnas/4lx5

>  <Rbt.Executable>
rbdock ($Id: //depot/dev/client3/rdock/2013.1/src/exe/rbdock.cxx#4 $)

>  <Rbt.Library>
libRbt.so (2013.1, Build901 2013/11/27)

>  <Rbt.Parameter_File>
/export/apps/rDock/src/rDock_2013.1_src/data/scripts/dock_solv.prm

>  <Rbt.Receptor>
prm/pocket_docking_6.prm

>  <SCORE>
-14.0799

>  <SCORE.INTER>
-14.0799

>  <SCORE.INTER.CONST>
1

>  <SCORE.INTER.POLAR>
0

>  <SCORE.INTER.ROT>
0

>  <SCORE.INTER.SOLV>
19.0164

>  <SCORE.INTER.VDW>
-19.3254

>  <SCORE.INTER.norm>
-1.17332

>  <SCORE.INTRA>
0

>  <SCORE.INTRA.DIHEDRAL>
0

>  <SCORE.INTRA.DIHEDRAL.0>
0

>  <SCORE.INTRA.POLAR>
0

>  <SCORE.INTRA.POLAR.0>
0

>  <SCORE.INTRA.REPUL>
0

>  <SCORE.INTRA.REPUL.0>
0

>  <SCORE.INTRA.SOLV>
0

>  <SCORE.INTRA.SOLV.lig_0>
-48.1583

>  <SCORE.INTRA.VDW>
0

>  <SCORE.INTRA.VDW.0>
0

>  <SCORE.INTRA.norm>
0

>  <SCORE.RESTR>
0

>  <SCORE.RESTR.CAVITY>
0

>  <SCORE.RESTR.norm>
0

>  <SCORE.SYSTEM>
0

>  <SCORE.SYSTEM.CONST>
0

>  <SCORE.SYSTEM.DIHEDRAL>
0

>  <SCORE.SYSTEM.SOLV>
0

>  <SCORE.SYSTEM.norm>
0

>  <SCORE.heavy>
12

>  <SCORE.norm>
-1.17332

>  <RMSD>
0.437

$$$$
ligand
 OpenBabel02271912143D
libRbt.so/2013.1/901 2013/11/27
 12 13  0  0  0  0  0  0  0  0999 V2000
    6.6792   17.5457    1.7540 C   0  0  0  0  0  0  0  0  0  0  0  0
    5.3639   16.2879    3.2110 C   0  0  0  0  0  0  0  0  0  0  0  0
    7.1649   17.7325    0.5301 N   0  0  0  0  0  0  0  0  0  0  0  0
    4.5819   15.2408    3.4959 N   0  0  0  0  0  0  0  0  0  0  0  0
    5.8836   16.4799    1.9913 N   0  0  0  0  0  0  0  0  0  0  0  0
    6.9654   18.4355    2.7303 N   0  0  0  0  0  0  0  0  0  0  0  0
    5.4379   17.8995    6.5374 N   0  0  0  0  0  0  0  0  0  0  0  0
    6.2635   18.9979    6.2521 C   0  0  0  0  0  0  0  0  0  0  0  0
    6.7891   19.1681    4.9500 N   0  0  0  0  0  0  0  0  0  0  0  0
    6.4724   18.2789    3.9841 C   0  0  0  0  0  0  0  0  0  0  0  0
    5.6417   17.1855    4.2494 C   0  0  0  0  0  0  0  0  0  0  0  0
    5.1137   16.9778    5.5223 C   0  0  0  0  0  0  0  0  0  0  0  0
  1  3  1  0  0  0  0
  1  5  1  0  0  0  0
  1  6  2  0  0  0  0
  2  5  2  0  0  0  0
  2 11  1  0  0  0  0
  2  4  1  0  0  0  0
  6 10  1  0  0  0  0
  7  8  2  0  0  0  0
  7 12  1  0  0  0  0
  8  9  1  0  0  0  0
  9 10  2  0  0  0  0
 10 11  1  0  0  0  0
 11 12  2  0  0  0  0
M  END
>  <CHROM.1>
6.03800524,17.51713070,3.73703639,-1.32066312,0.93199347,1.14271205

>  <Name>
ligand

>  <RI>
0

>  <Rbt.Current_Directory>
/home/itssahil/PROJECTS/Mol_Feturizer/Test_systems_manuscript/rnas/4lx5

>  <Rbt.Executable>
rbdock ($Id: //depot/dev/client3/rdock/2013.1/src/exe/rbdock.cxx#4 $)

>  <Rbt.Library>
libRbt.so (2013.1, Build901 2013/11/27)

>  <Rbt.Parameter_File>
/export/apps/rDock/src/rDock_2013.1_src/data/scripts/dock_solv.prm

>  <Rbt.Receptor>
prm/pocket_docking_6.prm

>  <SCORE>
-14.086

>  <SCORE.INTER>
-14.086

>  <SCORE.INTER.CONST>
1

>  <SCORE.INTER.POLAR>
0

>  <SCORE.INTER.ROT>
0

>  <SCORE.INTER.SOLV>
19.0704

>  <SCORE.INTER.VDW>
-19.3475

>  <SCORE.INTER.norm>
-1.17384

>  <SCORE.INTRA>
0

>  <SCORE.INTRA.DIHEDRAL>
0

>  <SCORE.INTRA.DIHEDRAL.0>
0

>  <SCORE.INTRA.POLAR>
0

>  <SCORE.INTRA.POLAR.0>
0

>  <SCORE.INTRA.REPUL>
0

>  <SCORE.INTRA.REPUL.0>
0

>  <SCORE.INTRA.SOLV>
0

>  <SCORE.INTRA.SOLV.lig_0>
-48.1583

>  <SCORE.INTRA.VDW>
0

>  <SCORE.INTRA.VDW.0>
0

>  <SCORE.INTRA.norm>
0

>  <SCORE.RESTR>
0

>  <SCORE.RESTR.CAVITY>
0

>  <SCORE.RESTR.norm>
0

>  <SCORE.SYSTEM>
0

>  <SCORE.SYSTEM.CONST>
0

>  <SCORE.SYSTEM.DIHEDRAL>
0

>  <SCORE.SYSTEM.SOLV>
0

>  <SCORE.SYSTEM.norm>
0

>  <SCORE.heavy>
12

>  <SCORE.norm>
-1.17384

>  <RMSD>
0.438

$$$$
ligand
 OpenBabel02271912143D
libRbt.so/2013.1/901 2013/11/27
 12 13  0  0  0  0  0  0  0  0999 V2000
    6.6875   17.5484    1.7614 C   0  0  0  0  0  0  0  0  0  0  0  0
    5.3650   16.2927    3.2136 C   0  0  0  0  0  0  0  0  0  0  0  0
    7.1775   17.7347    0.5390 N   0  0  0  0  0  0  0  0  0  0  0  0
    4.5801   15.2469    3.4956 N   0  0  0  0  0  0  0  0  0  0  0  0
    5.8891   16.4840    1.9957 N   0  0  0  0  0  0  0  0  0  0  0  0
    6.9722   18.4374    2.7388 N   0  0  0  0  0  0  0  0  0  0  0  0
    5.4312   17.9031    6.5407 N   0  0  0  0  0  0  0  0  0  0  0  0
    6.2598   19.0000    6.2585 C   0  0  0  0  0  0  0  0  0  0  0  0
    6.7900   19.1696    4.9582 N   0  0  0  0  0  0  0  0  0  0  0  0
    6.4747   18.2813    3.9910 C   0  0  0  0  0  0  0  0  0  0  0  0
    5.6411   17.1894    4.2532 C   0  0  0  0  0  0  0  0  0  0  0  0
    5.1086   16.9822    5.5243 C   0  0  0  0  0  0  0  0  0  0  0  0
  1  3  1  0  0  0  0
  1  5  1  0  0  0  0
  1  6  2  0  0  0  0
  2  5  2  0  0  0  0
  2 11  1  0  0  0  0
  2  4  1  0  0  0  0
  6 10  1  0  0  0  0
  7  8  2  0  0  0  0
  7 12  1  0  0  0  0
  8  9  1  0  0  0  0
  9 10  2  0  0  0  0
 10 11  1  0  0  0  0
 11 12  2  0  0  0  0
M  END
>  <CHROM.1>
6.03972538,17.52044051,3.74224243,-1.31699757,0.92890979,1.14009623

>  <Name>
ligand

>  <RI>
0

>  <Rbt.Current_Directory>
/home/itssahil/PROJECTS/Mol_Feturizer/Test_systems_manuscript/rnas/4lx5

>  <Rbt.Executable>
rbdock ($Id: //depot/dev/client3/rdock/2013.1/src/exe/rbdock.cxx#4 $)

>  <Rbt.Library>
libRbt.so (2013.1, Build901 2013/11/27)

>  <Rbt.Parameter_File>
/export/apps/rDock/src/rDock_2013.1_src/data/scripts/dock_solv.prm

>  <Rbt.Receptor>
prm/blind_docking_80.prm

>  <SCORE>
-14.0848

>  <SCORE.INTER>
-14.0848

>  <SCORE.INTER.CONST>
1

>  <SCORE.INTER.POLAR>
0

>  <SCORE.INTER.ROT>
0

>  <SCORE.INTER.SOLV>
19.071

>  <SCORE.INTER.VDW>
-19.3469

>  <SCORE.INTER.norm>
-1.17373

>  <SCORE.INTRA>
0

>  <SCORE.INTRA.DIHEDRAL>
0

>  <SCORE.INTRA.DIHEDRAL.0>
0

>  <SCORE.INTRA.POLAR>
0

>  <SCORE.INTRA.POLAR.0>
0

>  <SCORE.INTRA.REPUL>
0

>  <SCORE.INTRA.REPUL.0>
0

>  <SCORE.INTRA.SOLV>
0

>  <SCORE.INTRA.SOLV.lig_0>
-48.1583

>  <SCORE.INTRA.VDW>
0

>  <SCORE.INTRA.VDW.0>
0

>  <SCORE.INTRA.norm>
0

>  <SCORE.RESTR>
0

>  <SCORE.RESTR.CAVITY>
0

>  <SCORE.RESTR.norm>
0

>  <SCORE.SYSTEM>
0

>  <SCORE.SYSTEM.CONST>
0

>  <SCORE.SYSTEM.DIHEDRAL>
0

>  <SCORE.SYSTEM.SOLV>
0

>  <SCORE.SYSTEM.norm>
0

>  <SCORE.heavy>
12

>  <SCORE.norm>
-1.17373

>  <RMSD>
0.442

$$$$
ligand
 OpenBabel02271912143D
libRbt.so/2013.1/901 2013/11/27
 12 13  0  0  0  0  0  0  0  0999 V2000
    6.6993   17.5625    1.7643 C   0  0  0  0  0  0  0  0  0  0  0  0
    5.3758   16.3006    3.2103 C   0  0  0  0  0  0  0  0  0  0  0  0
    7.1933   17.7517    0.5440 N   0  0  0  0  0  0  0  0  0  0  0  0
    4.5936   15.2518    3.4882 N   0  0  0  0  0  0  0  0  0  0  0  0
    5.9039   16.4951    1.9945 N   0  0  0  0  0  0  0  0  0  0  0  0
    6.9771   18.4515    2.7437 N   0  0  0  0  0  0  0  0  0  0  0  0
    5.4235   17.9080    6.5392 N   0  0  0  0  0  0  0  0  0  0  0  0
    6.2493   19.0081    6.2612 C   0  0  0  0  0  0  0  0  0  0  0  0
    6.7838   19.1809    4.9631 N   0  0  0  0  0  0  0  0  0  0  0  0
    6.4754   18.2925    3.9938 C   0  0  0  0  0  0  0  0  0  0  0  0
    5.6447   17.1973    4.2517 C   0  0  0  0  0  0  0  0  0  0  0  0
    5.1081   16.9870    5.5206 C   0  0  0  0  0  0  0  0  0  0  0  0
  1  3  1  0  0  0  0
  1  5  1  0  0  0  0
  1  6  2  0  0  0  0
  2  5  2  0  0  0  0
  2 11  1  0  0  0  0
  2  4  1  0  0  0  0
  6 10  1  0  0  0  0
  7  8  2  0  0  0  0
  7 12  1  0  0  0  0
  8  9  1  0  0  0  0
  9 10  2  0  0  0  0
 10 11  1  0  0  0  0
 11 12  2  0  0  0  0
M  END
>  <CHROM.1>
6.04411075,17.53026886,3.74264861,-1.30868219,0.93054527,1.13441287

>  <Name>
ligand

>  <RI>
0

>  <Rbt.Current_Directory>
/home/itssahil/PROJECTS/Mol_Feturizer/Test_systems_manuscript/rnas/4lx5

>  <Rbt.Executable>
rbdock ($Id: //depot/dev/client3/rdock/2013.1/src/exe/rbdock.cxx#4 $)

>  <Rbt.Library>
libRbt.so (2013.1, Build901 2013/11/27)

>  <Rbt.Parameter_File>
/export/apps/rDock/src/rDock_2013.1_src/data/scripts/dock_solv.prm

>  <Rbt.Receptor>
prm/blind_docking_60.prm

>  <SCORE>
-14.0835

>  <SCORE.INTER>
-14.0835

>  <SCORE.INTER.CONST>
1

>  <SCORE.INTER.POLAR>
0

>  <SCORE.INTER.ROT>
0

>  <SCORE.INTER.SOLV>
19.1259

>  <SCORE.INTER.VDW>
-19.3643

>  <SCORE.INTER.norm>
-1.17363

>  <SCORE.INTRA>
0

>  <SCORE.INTRA.DIHEDRAL>
0

>  <SCORE.INTRA.DIHEDRAL.0>
0

>  <SCORE.INTRA.POLAR>
0

>  <SCORE.INTRA.POLAR.0>
0

>  <SCORE.INTRA.REPUL>
0

>  <SCORE.INTRA.REPUL.0>
0

>  <SCORE.INTRA.SOLV>
0

>  <SCORE.INTRA.SOLV.lig_0>
-48.1583

>  <SCORE.INTRA.VDW>
0

>  <SCORE.INTRA.VDW.0>
0

>  <SCORE.INTRA.norm>
0

>  <SCORE.RESTR>
0

>  <SCORE.RESTR.CAVITY>
0

>  <SCORE.RESTR.norm>
0

>  <SCORE.SYSTEM>
0

>  <SCORE.SYSTEM.CONST>
0

>  <SCORE.SYSTEM.DIHEDRAL>
0

>  <SCORE.SYSTEM.SOLV>
0

>  <SCORE.SYSTEM.norm>
0

>  <SCORE.heavy>
12

>  <SCORE.norm>
-1.17363

>  <RMSD>
0.443

$$$$
ligand
 OpenBabel02271912143D
libRbt.so/2013.1/901 2013/11/27
 12 13  0  0  0  0  0  0  0  0999 V2000
    6.7605   17.3855    1.7857 C   0  0  0  0  0  0  0  0  0  0  0  0
    5.3882   16.1967    3.2480 C   0  0  0  0  0  0  0  0  0  0  0  0
    7.2792   17.5252    0.5690 N   0  0  0  0  0  0  0  0  0  0  0  0
    4.5814   15.1723    3.5459 N   0  0  0  0  0  0  0  0  0  0  0  0
    5.9409   16.3411    2.0362 N   0  0  0  0  0  0  0  0  0  0  0  0
    7.0382   18.3010    2.7404 N   0  0  0  0  0  0  0  0  0  0  0  0
    5.4088   17.9117    6.5230 N   0  0  0  0  0  0  0  0  0  0  0  0
    6.2602   18.9866    6.2242 C   0  0  0  0  0  0  0  0  0  0  0  0
    6.8204   19.1066    4.9310 N   0  0  0  0  0  0  0  0  0  0  0  0
    6.5119   18.1926    3.9858 C   0  0  0  0  0  0  0  0  0  0  0  0
    5.6560   17.1220    4.2643 C   0  0  0  0  0  0  0  0  0  0  0  0
    5.0936   16.9637    5.5295 C   0  0  0  0  0  0  0  0  0  0  0  0
  1  3  1  0  0  0  0
  1  5  1  0  0  0  0
  1  6  2  0  0  0  0
  2  5  2  0  0  0  0
  2 11  1  0  0  0  0
  2  4  1  0  0  0  0
  6 10  1  0  0  0  0
  7  8  2  0  0  0  0
  7 12  1  0  0  0  0
  8  9  1  0  0  0  0
  9 10  2  0  0  0  0
 10 11  1  0  0  0  0
 11 12  2  0  0  0  0
M  END
>  <CHROM.1>
6.07053595,17.43061925,3.75192150,-1.29627477,0.90583785,1.09175604

>  <Name>
ligand

>  <RI>
0

>  <Rbt.Current_Directory>
/home/itssahil/PROJECTS/Mol_Feturizer/Test_systems_manuscript/rnas/4lx5

>  <Rbt.Executable>
rbdock ($Id: //depot/dev/client3/rdock/2013.1/src/exe/rbdock.cxx#4 $)

>  <Rbt.Library>
libRbt.so (2013.1, Build901 2013/11/27)

>  <Rbt.Parameter_File>
/export/apps/rDock/src/rDock_2013.1_src/data/scripts/dock_solv.prm

>  <Rbt.Receptor>
prm/blind_docking_80.prm

>  <SCORE>
-14.0149

>  <SCORE.INTER>
-14.0149

>  <SCORE.INTER.CONST>
1

>  <SCORE.INTER.POLAR>
0

>  <SCORE.INTER.ROT>
0

>  <SCORE.INTER.SOLV>
19.4636

>  <SCORE.INTER.VDW>
-19.4312

>  <SCORE.INTER.norm>
-1.16791

>  <SCORE.INTRA>
0

>  <SCORE.INTRA.DIHEDRAL>
0

>  <SCORE.INTRA.DIHEDRAL.0>
0

>  <SCORE.INTRA.POLAR>
0

>  <SCORE.INTRA.POLAR.0>
0

>  <SCORE.INTRA.REPUL>
0

>  <SCORE.INTRA.REPUL.0>
0

>  <SCORE.INTRA.SOLV>
0

>  <SCORE.INTRA.SOLV.lig_0>
-48.1583

>  <SCORE.INTRA.VDW>
0

>  <SCORE.INTRA.VDW.0>
0

>  <SCORE.INTRA.norm>
0

>  <SCORE.RESTR>
0

>  <SCORE.RESTR.CAVITY>
0

>  <SCORE.RESTR.norm>
0

>  <SCORE.SYSTEM>
0

>  <SCORE.SYSTEM.CONST>
0

>  <SCORE.SYSTEM.DIHEDRAL>
0

>  <SCORE.SYSTEM.SOLV>
0

>  <SCORE.SYSTEM.norm>
0

>  <SCORE.heavy>
12

>  <SCORE.norm>
-1.16791

>  <RMSD>
0.443

$$$$
ligand
 OpenBabel02271912143D
libRbt.so/2013.1/901 2013/11/27
 12 13  0  0  0  0  0  0  0  0999 V2000
    6.6771   17.5454    1.7577 C   0  0  0  0  0  0  0  0  0  0  0  0
    5.3617   16.2920    3.2183 C   0  0  0  0  0  0  0  0  0  0  0  0
    7.1606   17.7302    0.5325 N   0  0  0  0  0  0  0  0  0  0  0  0
    4.5776   15.2471    3.5054 N   0  0  0  0  0  0  0  0  0  0  0  0
    5.8792   16.4819    1.9973 N   0  0  0  0  0  0  0  0  0  0  0  0
    6.9679   18.4350    2.7328 N   0  0  0  0  0  0  0  0  0  0  0  0
    5.4473   17.9052    6.5436 N   0  0  0  0  0  0  0  0  0  0  0  0
    6.2753   19.0012    6.2559 C   0  0  0  0  0  0  0  0  0  0  0  0
    6.7985   19.1693    4.9525 N   0  0  0  0  0  0  0  0  0  0  0  0
    6.4772   18.2804    3.9878 C   0  0  0  0  0  0  0  0  0  0  0  0
    5.6441   17.1893    4.2555 C   0  0  0  0  0  0  0  0  0  0  0  0
    5.1185   16.9837    5.5297 C   0  0  0  0  0  0  0  0  0  0  0  0
  1  3  1  0  0  0  0
  1  5  1  0  0  0  0
  1  6  2  0  0  0  0
  2  5  2  0  0  0  0
  2 11  1  0  0  0  0
  2  4  1  0  0  0  0
  6 10  1  0  0  0  0
  7  8  2  0  0  0  0
  7 12  1  0  0  0  0
  8  9  1  0  0  0  0
  9 10  2  0  0  0  0
 10 11  1  0  0  0  0
 11 12  2  0  0  0  0
M  END
>  <CHROM.1>
6.04023510,17.51966964,3.74209390,-1.32588794,0.93048188,1.14635766

>  <Name>
ligand

>  <RI>
0

>  <Rbt.Current_Directory>
/home/itssahil/PROJECTS/Mol_Feturizer/Test_systems_manuscript/rnas/4lx5

>  <Rbt.Executable>
rbdock ($Id: //depot/dev/client3/rdock/2013.1/src/exe/rbdock.cxx#4 $)

>  <Rbt.Library>
libRbt.so (2013.1, Build901 2013/11/27)

>  <Rbt.Parameter_File>
/export/apps/rDock/src/rDock_2013.1_src/data/scripts/dock_solv.prm

>  <Rbt.Receptor>
prm/blind_docking_80.prm

>  <SCORE>
-14.0857

>  <SCORE.INTER>
-14.0857

>  <SCORE.INTER.CONST>
1

>  <SCORE.INTER.POLAR>
0

>  <SCORE.INTER.ROT>
0

>  <SCORE.INTER.SOLV>
19.0412

>  <SCORE.INTER.VDW>
-19.3376

>  <SCORE.INTER.norm>
-1.17381

>  <SCORE.INTRA>
0

>  <SCORE.INTRA.DIHEDRAL>
0

>  <SCORE.INTRA.DIHEDRAL.0>
0

>  <SCORE.INTRA.POLAR>
0

>  <SCORE.INTRA.POLAR.0>
0

>  <SCORE.INTRA.REPUL>
0

>  <SCORE.INTRA.REPUL.0>
0

>  <SCORE.INTRA.SOLV>
0

>  <SCORE.INTRA.SOLV.lig_0>
-48.1583

>  <SCORE.INTRA.VDW>
0

>  <SCORE.INTRA.VDW.0>
0

>  <SCORE.INTRA.norm>
0

>  <SCORE.RESTR>
0

>  <SCORE.RESTR.CAVITY>
0

>  <SCORE.RESTR.norm>
0

>  <SCORE.SYSTEM>
0

>  <SCORE.SYSTEM.CONST>
0

>  <SCORE.SYSTEM.DIHEDRAL>
0

>  <SCORE.SYSTEM.SOLV>
0

>  <SCORE.SYSTEM.norm>
0

>  <SCORE.heavy>
12

>  <SCORE.norm>
-1.17381

>  <RMSD>
0.444

$$$$
ligand
 OpenBabel02271912143D
libRbt.so/2013.1/901 2013/11/27
 12 13  0  0  0  0  0  0  0  0999 V2000
    6.6755   17.5497    1.7622 C   0  0  0  0  0  0  0  0  0  0  0  0
    5.3567   16.2923    3.2164 C   0  0  0  0  0  0  0  0  0  0  0  0
    7.1630   17.7368    0.5390 N   0  0  0  0  0  0  0  0  0  0  0  0
    4.5732   15.2459    3.4994 N   0  0  0  0  0  0  0  0  0  0  0  0
    5.8783   16.4846    1.9976 N   0  0  0  0  0  0  0  0  0  0  0  0
    6.9613   18.4384    2.7395 N   0  0  0  0  0  0  0  0  0  0  0  0
    5.4280   17.9013    6.5441 N   0  0  0  0  0  0  0  0  0  0  0  0
    6.2553   18.9990    6.2608 C   0  0  0  0  0  0  0  0  0  0  0  0
    6.7829   19.1696    4.9596 N   0  0  0  0  0  0  0  0  0  0  0  0
    6.4664   18.2815    3.9926 C   0  0  0  0  0  0  0  0  0  0  0  0
    5.6341   17.1887    4.2558 C   0  0  0  0  0  0  0  0  0  0  0  0
    5.1042   16.9807    5.5279 C   0  0  0  0  0  0  0  0  0  0  0  0
  1  3  1  0  0  0  0
  1  5  1  0  0  0  0
  1  6  2  0  0  0  0
  2  5  2  0  0  0  0
  2 11  1  0  0  0  0
  2  4  1  0  0  0  0
  6 10  1  0  0  0  0
  7  8  2  0  0  0  0
  7 12  1  0  0  0  0
  8  9  1  0  0  0  0
  9 10  2  0  0  0  0
 10 11  1  0  0  0  0
 11 12  2  0  0  0  0
M  END
>  <CHROM.1>
6.03151454,17.52035364,3.74430631,-1.31937152,0.93040318,1.14243470

>  <Name>
ligand

>  <RI>
0

>  <Rbt.Current_Directory>
/home/itssahil/PROJECTS/Mol_Feturizer/Test_systems_manuscript/rnas/4lx5

>  <Rbt.Executable>
rbdock ($Id: //depot/dev/client3/rdock/2013.1/src/exe/rbdock.cxx#4 $)

>  <Rbt.Library>
libRbt.so (2013.1, Build901 2013/11/27)

>  <Rbt.Parameter_File>
/export/apps/rDock/src/rDock_2013.1_src/data/scripts/dock_solv.prm

>  <Rbt.Receptor>
prm/blind_docking_40.prm

>  <SCORE>
-14.0864

>  <SCORE.INTER>
-14.0864

>  <SCORE.INTER.CONST>
1

>  <SCORE.INTER.POLAR>
0

>  <SCORE.INTER.ROT>
0

>  <SCORE.INTER.SOLV>
19.0393

>  <SCORE.INTER.VDW>
-19.3374

>  <SCORE.INTER.norm>
-1.17386

>  <SCORE.INTRA>
0

>  <SCORE.INTRA.DIHEDRAL>
0

>  <SCORE.INTRA.DIHEDRAL.0>
0

>  <SCORE.INTRA.POLAR>
0

>  <SCORE.INTRA.POLAR.0>
0

>  <SCORE.INTRA.REPUL>
0

>  <SCORE.INTRA.REPUL.0>
0

>  <SCORE.INTRA.SOLV>
0

>  <SCORE.INTRA.SOLV.lig_0>
-48.1583

>  <SCORE.INTRA.VDW>
0

>  <SCORE.INTRA.VDW.0>
0

>  <SCORE.INTRA.norm>
0

>  <SCORE.RESTR>
0

>  <SCORE.RESTR.CAVITY>
0

>  <SCORE.RESTR.norm>
0

>  <SCORE.SYSTEM>
0

>  <SCORE.SYSTEM.CONST>
0

>  <SCORE.SYSTEM.DIHEDRAL>
0

>  <SCORE.SYSTEM.SOLV>
0

>  <SCORE.SYSTEM.norm>
0

>  <SCORE.heavy>
12

>  <SCORE.norm>
-1.17386

>  <RMSD>
0.445

$$$$
ligand
 OpenBabel02271912143D
libRbt.so/2013.1/901 2013/11/27
 12 13  0  0  0  0  0  0  0  0999 V2000
    6.6767   17.5760    1.7464 C   0  0  0  0  0  0  0  0  0  0  0  0
    5.3653   16.3199    3.2083 C   0  0  0  0  0  0  0  0  0  0  0  0
    7.1583   17.7619    0.5206 N   0  0  0  0  0  0  0  0  0  0  0  0
    4.5833   15.2736    3.4963 N   0  0  0  0  0  0  0  0  0  0  0  0
    5.8809   16.5110    1.9868 N   0  0  0  0  0  0  0  0  0  0  0  0
    6.9671   18.4659    2.7213 N   0  0  0  0  0  0  0  0  0  0  0  0
    5.4523   17.9327    6.5339 N   0  0  0  0  0  0  0  0  0  0  0  0
    6.2780   19.0302    6.2453 C   0  0  0  0  0  0  0  0  0  0  0  0
    6.7992   19.1994    4.9414 N   0  0  0  0  0  0  0  0  0  0  0  0
    6.4783   18.3102    3.9769 C   0  0  0  0  0  0  0  0  0  0  0  0
    5.6475   17.2176    4.2454 C   0  0  0  0  0  0  0  0  0  0  0  0
    5.1238   17.0108    5.5202 C   0  0  0  0  0  0  0  0  0  0  0  0
  1  3  1  0  0  0  0
  1  5  1  0  0  0  0
  1  6  2  0  0  0  0
  2  5  2  0  0  0  0
  2 11  1  0  0  0  0
  2  4  1  0  0  0  0
  6 10  1  0  0  0  0
  7  8  2  0  0  0  0
  7 12  1  0  0  0  0
  8  9  1  0  0  0  0
  9 10  2  0  0  0  0
 10 11  1  0  0  0  0
 11 12  2  0  0  0  0
M  END
>  <CHROM.1>
6.04235319,17.54871332,3.73158153,-1.32660603,0.93258643,1.14713643

>  <Name>
ligand

>  <RI>
0

>  <Rbt.Current_Directory>
/home/itssahil/PROJECTS/Mol_Feturizer/Test_systems_manuscript/rnas/4lx5

>  <Rbt.Executable>
rbdock ($Id: //depot/dev/client3/rdock/2013.1/src/exe/rbdock.cxx#4 $)

>  <Rbt.Library>
libRbt.so (2013.1, Build901 2013/11/27)

>  <Rbt.Parameter_File>
/export/apps/rDock/src/rDock_2013.1_src/data/scripts/dock_solv.prm

>  <Rbt.Receptor>
prm/blind_docking_60.prm

>  <SCORE>
-14.054

>  <SCORE.INTER>
-14.054

>  <SCORE.INTER.CONST>
1

>  <SCORE.INTER.POLAR>
0

>  <SCORE.INTER.ROT>
0

>  <SCORE.INTER.SOLV>
19.0517

>  <SCORE.INTER.VDW>
-19.3199

>  <SCORE.INTER.norm>
-1.17117

>  <SCORE.INTRA>
0

>  <SCORE.INTRA.DIHEDRAL>
0

>  <SCORE.INTRA.DIHEDRAL.0>
0

>  <SCORE.INTRA.POLAR>
0

>  <SCORE.INTRA.POLAR.0>
0

>  <SCORE.INTRA.REPUL>
0

>  <SCORE.INTRA.REPUL.0>
0

>  <SCORE.INTRA.SOLV>
0

>  <SCORE.INTRA.SOLV.lig_0>
-48.1583

>  <SCORE.INTRA.VDW>
0

>  <SCORE.INTRA.VDW.0>
0

>  <SCORE.INTRA.norm>
0

>  <SCORE.RESTR>
0

>  <SCORE.RESTR.CAVITY>
0

>  <SCORE.RESTR.norm>
0

>  <SCORE.SYSTEM>
0

>  <SCORE.SYSTEM.CONST>
0

>  <SCORE.SYSTEM.DIHEDRAL>
0

>  <SCORE.SYSTEM.SOLV>
0

>  <SCORE.SYSTEM.norm>
0

>  <SCORE.heavy>
12

>  <SCORE.norm>
-1.17117

>  <RMSD>
0.445

$$$$
ligand
 OpenBabel02271912143D
libRbt.so/2013.1/901 2013/11/27
 12 13  0  0  0  0  0  0  0  0999 V2000
    6.6807   17.5469    1.7623 C   0  0  0  0  0  0  0  0  0  0  0  0
    5.3718   16.2843    3.2209 C   0  0  0  0  0  0  0  0  0  0  0  0
    7.1644   17.7354    0.5378 N   0  0  0  0  0  0  0  0  0  0  0  0
    4.5944   15.2341    3.5068 N   0  0  0  0  0  0  0  0  0  0  0  0
    5.8896   16.4780    2.0006 N   0  0  0  0  0  0  0  0  0  0  0  0
    6.9642   18.4382    2.7380 N   0  0  0  0  0  0  0  0  0  0  0  0
    5.4424   17.8972    6.5467 N   0  0  0  0  0  0  0  0  0  0  0  0
    6.2634   18.9988    6.2603 C   0  0  0  0  0  0  0  0  0  0  0  0
    6.7870   19.1708    4.9577 N   0  0  0  0  0  0  0  0  0  0  0  0
    6.4729   18.2800    3.9924 C   0  0  0  0  0  0  0  0  0  0  0  0
    5.6469   17.1833    4.2587 C   0  0  0  0  0  0  0  0  0  0  0  0
    5.1211   16.9738    5.5322 C   0  0  0  0  0  0  0  0  0  0  0  0
  1  3  1  0  0  0  0
  1  5  1  0  0  0  0
  1  6  2  0  0  0  0
  2  5  2  0  0  0  0
  2 11  1  0  0  0  0
  2  4  1  0  0  0  0
  6 10  1  0  0  0  0
  7  8  2  0  0  0  0
  7 12  1  0  0  0  0
  8  9  1  0  0  0  0
  9 10  2  0  0  0  0
 10 11  1  0  0  0  0
 11 12  2  0  0  0  0
M  END
>  <CHROM.1>
6.04144782,17.51639050,3.74587636,-1.31927578,0.93608305,1.14131067

>  <Name>
ligand

>  <RI>
0

>  <Rbt.Current_Directory>
/home/itssahil/PROJECTS/Mol_Feturizer/Test_systems_manuscript/rnas/4lx5

>  <Rbt.Executable>
rbdock ($Id: //depot/dev/client3/rdock/2013.1/src/exe/rbdock.cxx#4 $)

>  <Rbt.Library>
libRbt.so (2013.1, Build901 2013/11/27)

>  <Rbt.Parameter_File>
/export/apps/rDock/src/rDock_2013.1_src/data/scripts/dock_solv.prm

>  <Rbt.Receptor>
prm/pocket_docking_6.prm

>  <SCORE>
-14.0855

>  <SCORE.INTER>
-14.0855

>  <SCORE.INTER.CONST>
1

>  <SCORE.INTER.POLAR>
0

>  <SCORE.INTER.ROT>
0

>  <SCORE.INTER.SOLV>
19.1182

>  <SCORE.INTER.VDW>
-19.363

>  <SCORE.INTER.norm>
-1.17379

>  <SCORE.INTRA>
0

>  <SCORE.INTRA.DIHEDRAL>
0

>  <SCORE.INTRA.DIHEDRAL.0>
0

>  <SCORE.INTRA.POLAR>
0

>  <SCORE.INTRA.POLAR.0>
0

>  <SCORE.INTRA.REPUL>
0

>  <SCORE.INTRA.REPUL.0>
0

>  <SCORE.INTRA.SOLV>
0

>  <SCORE.INTRA.SOLV.lig_0>
-48.1583

>  <SCORE.INTRA.VDW>
0

>  <SCORE.INTRA.VDW.0>
0

>  <SCORE.INTRA.norm>
0

>  <SCORE.RESTR>
0

>  <SCORE.RESTR.CAVITY>
0

>  <SCORE.RESTR.norm>
0

>  <SCORE.SYSTEM>
0

>  <SCORE.SYSTEM.CONST>
0

>  <SCORE.SYSTEM.DIHEDRAL>
0

>  <SCORE.SYSTEM.SOLV>
0

>  <SCORE.SYSTEM.norm>
0

>  <SCORE.heavy>
12

>  <SCORE.norm>
-1.17379

>  <RMSD>
0.446

$$$$
ligand
 OpenBabel02271912143D
libRbt.so/2013.1/901 2013/11/27
 12 13  0  0  0  0  0  0  0  0999 V2000
    6.7013   17.5603    1.7724 C   0  0  0  0  0  0  0  0  0  0  0  0
    5.3809   16.2932    3.2166 C   0  0  0  0  0  0  0  0  0  0  0  0
    7.1942   17.7529    0.5523 N   0  0  0  0  0  0  0  0  0  0  0  0
    4.6007   15.2424    3.4929 N   0  0  0  0  0  0  0  0  0  0  0  0
    5.9078   16.4910    2.0010 N   0  0  0  0  0  0  0  0  0  0  0  0
    6.9782   18.4478    2.7535 N   0  0  0  0  0  0  0  0  0  0  0  0
    5.4280   17.8937    6.5488 N   0  0  0  0  0  0  0  0  0  0  0  0
    6.2517   18.9959    6.2726 C   0  0  0  0  0  0  0  0  0  0  0  0
    6.7851   19.1723    4.9745 N   0  0  0  0  0  0  0  0  0  0  0  0
    6.4776   18.2853    4.0036 C   0  0  0  0  0  0  0  0  0  0  0  0
    5.6489   17.1881    4.2598 C   0  0  0  0  0  0  0  0  0  0  0  0
    5.1135   16.9743    5.5286 C   0  0  0  0  0  0  0  0  0  0  0  0
  1  3  1  0  0  0  0
  1  5  1  0  0  0  0
  1  6  2  0  0  0  0
  2  5  2  0  0  0  0
  2 11  1  0  0  0  0
  2  4  1  0  0  0  0
  6 10  1  0  0  0  0
  7  8  2  0  0  0  0
  7 12  1  0  0  0  0
  8  9  1  0  0  0  0
  9 10  2  0  0  0  0
 10 11  1  0  0  0  0
 11 12  2  0  0  0  0
M  END
>  <CHROM.1>
6.04744348,17.52287596,3.75114664,-1.30845425,0.93239883,1.13630195

>  <Name>
ligand

>  <RI>
0

>  <Rbt.Current_Directory>
/home/itssahil/PROJECTS/Mol_Feturizer/Test_systems_manuscript/rnas/4lx5

>  <Rbt.Executable>
rbdock ($Id: //depot/dev/client3/rdock/2013.1/src/exe/rbdock.cxx#4 $)

>  <Rbt.Library>
libRbt.so (2013.1, Build901 2013/11/27)

>  <Rbt.Parameter_File>
/export/apps/rDock/src/rDock_2013.1_src/data/scripts/dock_solv.prm

>  <Rbt.Receptor>
prm/pocket_docking_6.prm

>  <SCORE>
-14.0836

>  <SCORE.INTER>
-14.0836

>  <SCORE.INTER.CONST>
1

>  <SCORE.INTER.POLAR>
0

>  <SCORE.INTER.ROT>
0

>  <SCORE.INTER.SOLV>
19.1571

>  <SCORE.INTER.VDW>
-19.3748

>  <SCORE.INTER.norm>
-1.17364

>  <SCORE.INTRA>
0

>  <SCORE.INTRA.DIHEDRAL>
0

>  <SCORE.INTRA.DIHEDRAL.0>
0

>  <SCORE.INTRA.POLAR>
0

>  <SCORE.INTRA.POLAR.0>
0

>  <SCORE.INTRA.REPUL>
0

>  <SCORE.INTRA.REPUL.0>
0

>  <SCORE.INTRA.SOLV>
0

>  <SCORE.INTRA.SOLV.lig_0>
-48.1583

>  <SCORE.INTRA.VDW>
0

>  <SCORE.INTRA.VDW.0>
0

>  <SCORE.INTRA.norm>
0

>  <SCORE.RESTR>
0

>  <SCORE.RESTR.CAVITY>
0

>  <SCORE.RESTR.norm>
0

>  <SCORE.SYSTEM>
0

>  <SCORE.SYSTEM.CONST>
0

>  <SCORE.SYSTEM.DIHEDRAL>
0

>  <SCORE.SYSTEM.SOLV>
0

>  <SCORE.SYSTEM.norm>
0

>  <SCORE.heavy>
12

>  <SCORE.norm>
-1.17364

>  <RMSD>
0.447

$$$$
ligand
 OpenBabel02271912143D
libRbt.so/2013.1/901 2013/11/27
 12 13  0  0  0  0  0  0  0  0999 V2000
    6.6868   17.5548    1.7674 C   0  0  0  0  0  0  0  0  0  0  0  0
    5.3720   16.2922    3.2208 C   0  0  0  0  0  0  0  0  0  0  0  0
    7.1734   17.7445    0.5443 N   0  0  0  0  0  0  0  0  0  0  0  0
    4.5915   15.2433    3.5029 N   0  0  0  0  0  0  0  0  0  0  0  0
    5.8927   16.4872    2.0019 N   0  0  0  0  0  0  0  0  0  0  0  0
    6.9703   18.4434    2.7455 N   0  0  0  0  0  0  0  0  0  0  0  0
    5.4395   17.8982    6.5500 N   0  0  0  0  0  0  0  0  0  0  0  0
    6.2636   18.9986    6.2675 C   0  0  0  0  0  0  0  0  0  0  0  0
    6.7903   19.1719    4.9663 N   0  0  0  0  0  0  0  0  0  0  0  0
    6.4761   18.2838    3.9985 C   0  0  0  0  0  0  0  0  0  0  0  0
    5.6471   17.1885    4.2609 C   0  0  0  0  0  0  0  0  0  0  0  0
    5.1181   16.9776    5.5330 C   0  0  0  0  0  0  0  0  0  0  0  0
  1  3  1  0  0  0  0
  1  5  1  0  0  0  0
  1  6  2  0  0  0  0
  2  5  2  0  0  0  0
  2 11  1  0  0  0  0
  2  4  1  0  0  0  0
  6 10  1  0  0  0  0
  7  8  2  0  0  0  0
  7 12  1  0  0  0  0
  8  9  1  0  0  0  0
  9 10  2  0  0  0  0
 10 11  1  0  0  0  0
 11 12  2  0  0  0  0
M  END
>  <CHROM.1>
6.04340223,17.52169994,3.74963109,-1.31776615,0.93311629,1.14211029

>  <Name>
ligand

>  <RI>
0

>  <Rbt.Current_Directory>
/home/itssahil/PROJECTS/Mol_Feturizer/Test_systems_manuscript/rnas/4lx5

>  <Rbt.Executable>
rbdock ($Id: //depot/dev/client3/rdock/2013.1/src/exe/rbdock.cxx#4 $)

>  <Rbt.Library>
libRbt.so (2013.1, Build901 2013/11/27)

>  <Rbt.Parameter_File>
/export/apps/rDock/src/rDock_2013.1_src/data/scripts/dock_solv.prm

>  <Rbt.Receptor>
prm/pocket_docking_6.prm

>  <SCORE>
-14.0867

>  <SCORE.INTER>
-14.0867

>  <SCORE.INTER.CONST>
1

>  <SCORE.INTER.POLAR>
0

>  <SCORE.INTER.ROT>
0

>  <SCORE.INTER.SOLV>
19.1062

>  <SCORE.INTER.VDW>
-19.3598

>  <SCORE.INTER.norm>
-1.17389

>  <SCORE.INTRA>
0

>  <SCORE.INTRA.DIHEDRAL>
0

>  <SCORE.INTRA.DIHEDRAL.0>
0

>  <SCORE.INTRA.POLAR>
0

>  <SCORE.INTRA.POLAR.0>
0

>  <SCORE.INTRA.REPUL>
0

>  <SCORE.INTRA.REPUL.0>
0

>  <SCORE.INTRA.SOLV>
0

>  <SCORE.INTRA.SOLV.lig_0>
-48.1583

>  <SCORE.INTRA.VDW>
0

>  <SCORE.INTRA.VDW.0>
0

>  <SCORE.INTRA.norm>
0

>  <SCORE.RESTR>
0

>  <SCORE.RESTR.CAVITY>
0

>  <SCORE.RESTR.norm>
0

>  <SCORE.SYSTEM>
0

>  <SCORE.SYSTEM.CONST>
0

>  <SCORE.SYSTEM.DIHEDRAL>
0

>  <SCORE.SYSTEM.SOLV>
0

>  <SCORE.SYSTEM.norm>
0

>  <SCORE.heavy>
12

>  <SCORE.norm>
-1.17389

>  <RMSD>
0.449

$$$$
ligand
 OpenBabel02271912143D
libRbt.so/2013.1/901 2013/11/27
 12 13  0  0  0  0  0  0  0  0999 V2000
    6.6727   17.5504    1.7653 C   0  0  0  0  0  0  0  0  0  0  0  0
    5.3594   16.2941    3.2254 C   0  0  0  0  0  0  0  0  0  0  0  0
    7.1552   17.7370    0.5401 N   0  0  0  0  0  0  0  0  0  0  0  0
    4.5767   15.2480    3.5119 N   0  0  0  0  0  0  0  0  0  0  0  0
    5.8761   16.4858    2.0043 N   0  0  0  0  0  0  0  0  0  0  0  0
    6.9629   18.4394    2.7411 N   0  0  0  0  0  0  0  0  0  0  0  0
    5.4450   17.9042    6.5522 N   0  0  0  0  0  0  0  0  0  0  0  0
    6.2715   19.0015    6.2651 C   0  0  0  0  0  0  0  0  0  0  0  0
    6.7938   19.1714    4.9617 N   0  0  0  0  0  0  0  0  0  0  0  0
    6.4730   18.2831    3.9963 C   0  0  0  0  0  0  0  0  0  0  0  0
    5.6414   17.1908    4.2633 C   0  0  0  0  0  0  0  0  0  0  0  0
    5.1166   16.9833    5.5376 C   0  0  0  0  0  0  0  0  0  0  0  0
  1  3  1  0  0  0  0
  1  5  1  0  0  0  0
  1  6  2  0  0  0  0
  2  5  2  0  0  0  0
  2 11  1  0  0  0  0
  2  4  1  0  0  0  0
  6 10  1  0  0  0  0
  7  8  2  0  0  0  0
  7 12  1  0  0  0  0
  8  9  1  0  0  0  0
  9 10  2  0  0  0  0
 10 11  1  0  0  0  0
 11 12  2  0  0  0  0
M  END
>  <CHROM.1>
6.03683753,17.52205651,3.75004265,-1.32590513,0.93175739,1.14733840

>  <Name>
ligand

>  <RI>
0

>  <Rbt.Current_Directory>
/home/itssahil/PROJECTS/Mol_Feturizer/Test_systems_manuscript/rnas/4lx5

>  <Rbt.Executable>
rbdock ($Id: //depot/dev/client3/rdock/2013.1/src/exe/rbdock.cxx#4 $)

>  <Rbt.Library>
libRbt.so (2013.1, Build901 2013/11/27)

>  <Rbt.Parameter_File>
/export/apps/rDock/src/rDock_2013.1_src/data/scripts/dock_solv.prm

>  <Rbt.Receptor>
prm/blind_docking_60.prm

>  <SCORE>
-14.0868

>  <SCORE.INTER>
-14.0868

>  <SCORE.INTER.CONST>
1

>  <SCORE.INTER.POLAR>
0

>  <SCORE.INTER.ROT>
0

>  <SCORE.INTER.SOLV>
19.0357

>  <SCORE.INTER.VDW>
-19.3365

>  <SCORE.INTER.norm>
-1.1739

>  <SCORE.INTRA>
0

>  <SCORE.INTRA.DIHEDRAL>
0

>  <SCORE.INTRA.DIHEDRAL.0>
0

>  <SCORE.INTRA.POLAR>
0

>  <SCORE.INTRA.POLAR.0>
0

>  <SCORE.INTRA.REPUL>
0

>  <SCORE.INTRA.REPUL.0>
0

>  <SCORE.INTRA.SOLV>
0

>  <SCORE.INTRA.SOLV.lig_0>
-48.1583

>  <SCORE.INTRA.VDW>
0

>  <SCORE.INTRA.VDW.0>
0

>  <SCORE.INTRA.norm>
0

>  <SCORE.RESTR>
0

>  <SCORE.RESTR.CAVITY>
0

>  <SCORE.RESTR.norm>
0

>  <SCORE.SYSTEM>
0

>  <SCORE.SYSTEM.CONST>
0

>  <SCORE.SYSTEM.DIHEDRAL>
0

>  <SCORE.SYSTEM.SOLV>
0

>  <SCORE.SYSTEM.norm>
0

>  <SCORE.heavy>
12

>  <SCORE.norm>
-1.1739

>  <RMSD>
0.452

$$$$
ligand
 OpenBabel02271912143D
libRbt.so/2013.1/901 2013/11/27
 12 13  0  0  0  0  0  0  0  0999 V2000
    6.6949   17.3952    1.7896 C   0  0  0  0  0  0  0  0  0  0  0  0
    5.3675   16.1953    3.2841 C   0  0  0  0  0  0  0  0  0  0  0  0
    7.1882   17.5355    0.5625 N   0  0  0  0  0  0  0  0  0  0  0  0
    4.5810   15.1614    3.6026 N   0  0  0  0  0  0  0  0  0  0  0  0
    5.8949   16.3409    2.0612 N   0  0  0  0  0  0  0  0  0  0  0  0
    6.9778   18.3196    2.7341 N   0  0  0  0  0  0  0  0  0  0  0  0
    5.4265   17.9283    6.5492 N   0  0  0  0  0  0  0  0  0  0  0  0
    6.2568   19.0133    6.2286 C   0  0  0  0  0  0  0  0  0  0  0  0
    6.7905   19.1341    4.9242 N   0  0  0  0  0  0  0  0  0  0  0  0
    6.4769   18.2107    3.9899 C   0  0  0  0  0  0  0  0  0  0  0  0
    5.6417   17.1298    4.2903 C   0  0  0  0  0  0  0  0  0  0  0  0
    5.1057   16.9706    5.5668 C   0  0  0  0  0  0  0  0  0  0  0  0
  1  3  1  0  0  0  0
  1  5  1  0  0  0  0
  1  6  2  0  0  0  0
  2  5  2  0  0  0  0
  2 11  1  0  0  0  0
  2  4  1  0  0  0  0
  6 10  1  0  0  0  0
  7  8  2  0  0  0  0
  7 12  1  0  0  0  0
  8  9  1  0  0  0  0
  9 10  2  0  0  0  0
 10 11  1  0  0  0  0
 11 12  2  0  0  0  0
M  END
>  <CHROM.1>
6.04194939,17.44139731,3.76844142,-1.31367351,0.92702327,1.10024751

>  <Name>
ligand

>  <RI>
0

>  <Rbt.Current_Directory>
/home/itssahil/PROJECTS/Mol_Feturizer/Test_systems_manuscript/rnas/4lx5

>  <Rbt.Executable>
rbdock ($Id: //depot/dev/client3/rdock/2013.1/src/exe/rbdock.cxx#4 $)

>  <Rbt.Library>
libRbt.so (2013.1, Build901 2013/11/27)

>  <Rbt.Parameter_File>
/export/apps/rDock/src/rDock_2013.1_src/data/scripts/dock_solv.prm

>  <Rbt.Receptor>
prm/blind_docking_80.prm

>  <SCORE>
-14.0233

>  <SCORE.INTER>
-14.0233

>  <SCORE.INTER.CONST>
1

>  <SCORE.INTER.POLAR>
0

>  <SCORE.INTER.ROT>
0

>  <SCORE.INTER.SOLV>
19.3701

>  <SCORE.INTER.VDW>
-19.4056

>  <SCORE.INTER.norm>
-1.16861

>  <SCORE.INTRA>
0

>  <SCORE.INTRA.DIHEDRAL>
0

>  <SCORE.INTRA.DIHEDRAL.0>
0

>  <SCORE.INTRA.POLAR>
0

>  <SCORE.INTRA.POLAR.0>
0

>  <SCORE.INTRA.REPUL>
0

>  <SCORE.INTRA.REPUL.0>
0

>  <SCORE.INTRA.SOLV>
0

>  <SCORE.INTRA.SOLV.lig_0>
-48.1583

>  <SCORE.INTRA.VDW>
0

>  <SCORE.INTRA.VDW.0>
0

>  <SCORE.INTRA.norm>
0

>  <SCORE.RESTR>
0

>  <SCORE.RESTR.CAVITY>
0

>  <SCORE.RESTR.norm>
0

>  <SCORE.SYSTEM>
0

>  <SCORE.SYSTEM.CONST>
0

>  <SCORE.SYSTEM.DIHEDRAL>
0

>  <SCORE.SYSTEM.SOLV>
0

>  <SCORE.SYSTEM.norm>
0

>  <SCORE.heavy>
12

>  <SCORE.norm>
-1.16861

>  <RMSD>
0.471

$$$$
ligand
 OpenBabel02271912143D
libRbt.so/2013.1/901 2013/11/27
 12 13  0  0  0  0  0  0  0  0999 V2000
    6.6610   17.5308    1.7845 C   0  0  0  0  0  0  0  0  0  0  0  0
    5.3689   16.2676    3.2575 C   0  0  0  0  0  0  0  0  0  0  0  0
    7.1367   17.7154    0.5563 N   0  0  0  0  0  0  0  0  0  0  0  0
    4.6004   15.2137    3.5537 N   0  0  0  0  0  0  0  0  0  0  0  0
    5.8787   16.4578    2.0333 N   0  0  0  0  0  0  0  0  0  0  0  0
    6.9436   18.4296    2.7534 N   0  0  0  0  0  0  0  0  0  0  0  0
    5.4465   17.9002    6.5735 N   0  0  0  0  0  0  0  0  0  0  0  0
    6.2582   19.0058    6.2763 C   0  0  0  0  0  0  0  0  0  0  0  0
    6.7735   19.1738    4.9698 N   0  0  0  0  0  0  0  0  0  0  0  0
    6.4604   18.2753    4.0114 C   0  0  0  0  0  0  0  0  0  0  0  0
    5.6435   17.1744    4.2886 C   0  0  0  0  0  0  0  0  0  0  0  0
    5.1260   16.9687    5.5662 C   0  0  0  0  0  0  0  0  0  0  0  0
  1  3  1  0  0  0  0
  1  5  1  0  0  0  0
  1  6  2  0  0  0  0
  2  5  2  0  0  0  0
  2 11  1  0  0  0  0
  2  4  1  0  0  0  0
  6 10  1  0  0  0  0
  7  8  2  0  0  0  0
  7 12  1  0  0  0  0
  8  9  1  0  0  0  0
  9 10  2  0  0  0  0
 10 11  1  0  0  0  0
 11 12  2  0  0  0  0
M  END
>  <CHROM.1>
6.03284183,17.50729369,3.77172016,-1.32283501,0.94466131,1.13840321

>  <Name>
ligand

>  <RI>
0

>  <Rbt.Current_Directory>
/home/itssahil/PROJECTS/Mol_Feturizer/Test_systems_manuscript/rnas/4lx5

>  <Rbt.Executable>
rbdock ($Id: //depot/dev/client3/rdock/2013.1/src/exe/rbdock.cxx#4 $)

>  <Rbt.Library>
libRbt.so (2013.1, Build901 2013/11/27)

>  <Rbt.Parameter_File>
/export/apps/rDock/src/rDock_2013.1_src/data/scripts/dock_solv.prm

>  <Rbt.Receptor>
prm/pocket_docking_5.prm

>  <SCORE>
-14.0531

>  <SCORE.INTER>
-14.0531

>  <SCORE.INTER.CONST>
1

>  <SCORE.INTER.POLAR>
0

>  <SCORE.INTER.ROT>
0

>  <SCORE.INTER.SOLV>
19.1769

>  <SCORE.INTER.VDW>
-19.361

>  <SCORE.INTER.norm>
-1.17109

>  <SCORE.INTRA>
0

>  <SCORE.INTRA.DIHEDRAL>
0

>  <SCORE.INTRA.DIHEDRAL.0>
0

>  <SCORE.INTRA.POLAR>
0

>  <SCORE.INTRA.POLAR.0>
0

>  <SCORE.INTRA.REPUL>
0

>  <SCORE.INTRA.REPUL.0>
0

>  <SCORE.INTRA.SOLV>
0

>  <SCORE.INTRA.SOLV.lig_0>
-48.1583

>  <SCORE.INTRA.VDW>
0

>  <SCORE.INTRA.VDW.0>
0

>  <SCORE.INTRA.norm>
0

>  <SCORE.RESTR>
0

>  <SCORE.RESTR.CAVITY>
0

>  <SCORE.RESTR.norm>
0

>  <SCORE.SYSTEM>
0

>  <SCORE.SYSTEM.CONST>
0

>  <SCORE.SYSTEM.DIHEDRAL>
0

>  <SCORE.SYSTEM.SOLV>
0

>  <SCORE.SYSTEM.norm>
0

>  <SCORE.heavy>
12

>  <SCORE.norm>
-1.17109

>  <RMSD>
0.473

$$$$
ligand
 OpenBabel02271912143D
libRbt.so/2013.1/901 2013/11/27
 12 13  0  0  0  0  0  0  0  0999 V2000
    6.6871   17.5585    1.8032 C   0  0  0  0  0  0  0  0  0  0  0  0
    5.3702   16.2926    3.2518 C   0  0  0  0  0  0  0  0  0  0  0  0
    7.1754   17.7511    0.5812 N   0  0  0  0  0  0  0  0  0  0  0  0
    4.5893   15.2431    3.5305 N   0  0  0  0  0  0  0  0  0  0  0  0
    5.8926   16.4904    2.0342 N   0  0  0  0  0  0  0  0  0  0  0  0
    6.9694   18.4448    2.7838 N   0  0  0  0  0  0  0  0  0  0  0  0
    5.4334   17.8908    6.5849 N   0  0  0  0  0  0  0  0  0  0  0  0
    6.2580   18.9917    6.3062 C   0  0  0  0  0  0  0  0  0  0  0  0
    6.7865   19.1680    5.0061 N   0  0  0  0  0  0  0  0  0  0  0  0
    6.4735   18.2823    4.0358 C   0  0  0  0  0  0  0  0  0  0  0  0
    5.6440   17.1864    4.2945 C   0  0  0  0  0  0  0  0  0  0  0  0
    5.1133   16.9726    5.5653 C   0  0  0  0  0  0  0  0  0  0  0  0
  1  3  1  0  0  0  0
  1  5  1  0  0  0  0
  1  6  2  0  0  0  0
  2  5  2  0  0  0  0
  2 11  1  0  0  0  0
  2  4  1  0  0  0  0
  6 10  1  0  0  0  0
  7  8  2  0  0  0  0
  7 12  1  0  0  0  0
  8  9  1  0  0  0  0
  9 10  2  0  0  0  0
 10 11  1  0  0  0  0
 11 12  2  0  0  0  0
M  END
>  <CHROM.1>
6.04105782,17.52078283,3.78450477,-1.31576873,0.93246165,1.14287231

>  <Name>
ligand

>  <RI>
0

>  <Rbt.Current_Directory>
/home/itssahil/PROJECTS/Mol_Feturizer/Test_systems_manuscript/rnas/4lx5

>  <Rbt.Executable>
rbdock ($Id: //depot/dev/client3/rdock/2013.1/src/exe/rbdock.cxx#4 $)

>  <Rbt.Library>
libRbt.so (2013.1, Build901 2013/11/27)

>  <Rbt.Parameter_File>
/export/apps/rDock/src/rDock_2013.1_src/data/scripts/dock_solv.prm

>  <Rbt.Receptor>
prm/pocket_docking_3.prm

>  <SCORE>
-14.1277

>  <SCORE.INTER>
-14.1277

>  <SCORE.INTER.CONST>
1

>  <SCORE.INTER.POLAR>
0

>  <SCORE.INTER.ROT>
0

>  <SCORE.INTER.SOLV>
19.1263

>  <SCORE.INTER.VDW>
-19.3939

>  <SCORE.INTER.norm>
-1.17731

>  <SCORE.INTRA>
0

>  <SCORE.INTRA.DIHEDRAL>
0

>  <SCORE.INTRA.DIHEDRAL.0>
0

>  <SCORE.INTRA.POLAR>
0

>  <SCORE.INTRA.POLAR.0>
0

>  <SCORE.INTRA.REPUL>
0

>  <SCORE.INTRA.REPUL.0>
0

>  <SCORE.INTRA.SOLV>
0

>  <SCORE.INTRA.SOLV.lig_0>
-48.1583

>  <SCORE.INTRA.VDW>
0

>  <SCORE.INTRA.VDW.0>
0

>  <SCORE.INTRA.norm>
0

>  <SCORE.RESTR>
0

>  <SCORE.RESTR.CAVITY>
0

>  <SCORE.RESTR.norm>
0

>  <SCORE.SYSTEM>
0

>  <SCORE.SYSTEM.CONST>
0

>  <SCORE.SYSTEM.DIHEDRAL>
0

>  <SCORE.SYSTEM.SOLV>
0

>  <SCORE.SYSTEM.norm>
0

>  <SCORE.heavy>
12

>  <SCORE.norm>
-1.17731

>  <RMSD>
0.479

$$$$
ligand
 OpenBabel02271912143D
libRbt.so/2013.1/901 2013/11/27
 12 13  0  0  0  0  0  0  0  0999 V2000
    6.6850   17.5639    1.8036 C   0  0  0  0  0  0  0  0  0  0  0  0
    5.3783   16.2875    3.2521 C   0  0  0  0  0  0  0  0  0  0  0  0
    7.1730   17.7596    0.5820 N   0  0  0  0  0  0  0  0  0  0  0  0
    4.6069   15.2310    3.5311 N   0  0  0  0  0  0  0  0  0  0  0  0
    5.9003   16.4887    2.0349 N   0  0  0  0  0  0  0  0  0  0  0  0
    6.9577   18.4540    2.7834 N   0  0  0  0  0  0  0  0  0  0  0  0
    5.4223   17.8902    6.5833 N   0  0  0  0  0  0  0  0  0  0  0  0
    6.2368   18.9985    6.3042 C   0  0  0  0  0  0  0  0  0  0  0  0
    6.7652   19.1782    5.0046 N   0  0  0  0  0  0  0  0  0  0  0  0
    6.4618   18.2884    4.0350 C   0  0  0  0  0  0  0  0  0  0  0  0
    5.6423   17.1850    4.2940 C   0  0  0  0  0  0  0  0  0  0  0  0
    5.1120   16.9678    5.5644 C   0  0  0  0  0  0  0  0  0  0  0  0
  1  3  1  0  0  0  0
  1  5  1  0  0  0  0
  1  6  2  0  0  0  0
  2  5  2  0  0  0  0
  2 11  1  0  0  0  0
  2  4  1  0  0  0  0
  6 10  1  0  0  0  0
  7  8  2  0  0  0  0
  7 12  1  0  0  0  0
  8  9  1  0  0  0  0
  9 10  2  0  0  0  0
 10 11  1  0  0  0  0
 11 12  2  0  0  0  0
M  END
>  <CHROM.1>
6.03683592,17.52255183,3.78412276,-1.30721976,0.94048536,1.13475516

>  <Name>
ligand

>  <RI>
0

>  <Rbt.Current_Directory>
/home/itssahil/PROJECTS/Mol_Feturizer/Test_systems_manuscript/rnas/4lx5

>  <Rbt.Executable>
rbdock ($Id: //depot/dev/client3/rdock/2013.1/src/exe/rbdock.cxx#4 $)

>  <Rbt.Library>
libRbt.so (2013.1, Build901 2013/11/27)

>  <Rbt.Parameter_File>
/export/apps/rDock/src/rDock_2013.1_src/data/scripts/dock_solv.prm

>  <Rbt.Receptor>
prm/pocket_docking_5.prm

>  <SCORE>
-14.1327

>  <SCORE.INTER>
-14.1327

>  <SCORE.INTER.CONST>
1

>  <SCORE.INTER.POLAR>
0

>  <SCORE.INTER.ROT>
0

>  <SCORE.INTER.SOLV>
19.2039

>  <SCORE.INTER.VDW>
-19.4231

>  <SCORE.INTER.norm>
-1.17772

>  <SCORE.INTRA>
0

>  <SCORE.INTRA.DIHEDRAL>
0

>  <SCORE.INTRA.DIHEDRAL.0>
0

>  <SCORE.INTRA.POLAR>
0

>  <SCORE.INTRA.POLAR.0>
0

>  <SCORE.INTRA.REPUL>
0

>  <SCORE.INTRA.REPUL.0>
0

>  <SCORE.INTRA.SOLV>
0

>  <SCORE.INTRA.SOLV.lig_0>
-48.1583

>  <SCORE.INTRA.VDW>
0

>  <SCORE.INTRA.VDW.0>
0

>  <SCORE.INTRA.norm>
0

>  <SCORE.RESTR>
0

>  <SCORE.RESTR.CAVITY>
0

>  <SCORE.RESTR.norm>
0

>  <SCORE.SYSTEM>
0

>  <SCORE.SYSTEM.CONST>
0

>  <SCORE.SYSTEM.DIHEDRAL>
0

>  <SCORE.SYSTEM.SOLV>
0

>  <SCORE.SYSTEM.norm>
0

>  <SCORE.heavy>
12

>  <SCORE.norm>
-1.17772

>  <RMSD>
0.479

$$$$
ligand
 OpenBabel02271912143D
libRbt.so/2013.1/901 2013/11/27
 12 13  0  0  0  0  0  0  0  0999 V2000
    6.7123   17.6522    1.7724 C   0  0  0  0  0  0  0  0  0  0  0  0
    5.4137   16.3647    3.2183 C   0  0  0  0  0  0  0  0  0  0  0  0
    7.1984   17.8539    0.5509 N   0  0  0  0  0  0  0  0  0  0  0  0
    4.6484   15.3032    3.4950 N   0  0  0  0  0  0  0  0  0  0  0  0
    5.9337   16.5721    2.0013 N   0  0  0  0  0  0  0  0  0  0  0  0
    6.9809   18.5411    2.7544 N   0  0  0  0  0  0  0  0  0  0  0  0
    5.4514   17.9585    6.5539 N   0  0  0  0  0  0  0  0  0  0  0  0
    6.2596   19.0720    6.2772 C   0  0  0  0  0  0  0  0  0  0  0  0
    6.7861   19.2582    4.9777 N   0  0  0  0  0  0  0  0  0  0  0  0
    6.4869   18.3694    4.0059 C   0  0  0  0  0  0  0  0  0  0  0  0
    5.6736   17.2608    4.2625 C   0  0  0  0  0  0  0  0  0  0  0  0
    5.1455   17.0373    5.5327 C   0  0  0  0  0  0  0  0  0  0  0  0
  1  3  1  0  0  0  0
  1  5  1  0  0  0  0
  1  6  2  0  0  0  0
  2  5  2  0  0  0  0
  2 11  1  0  0  0  0
  2  4  1  0  0  0  0
  6 10  1  0  0  0  0
  7  8  2  0  0  0  0
  7 12  1  0  0  0  0
  8  9  1  0  0  0  0
  9 10  2  0  0  0  0
 10 11  1  0  0  0  0
 11 12  2  0  0  0  0
M  END
>  <CHROM.1>
6.06589796,17.60189691,3.75322038,-1.30441205,0.94577167,1.13522031

>  <Name>
ligand

>  <RI>
0

>  <Rbt.Current_Directory>
/home/itssahil/PROJECTS/Mol_Feturizer/Test_systems_manuscript/rnas/4lx5

>  <Rbt.Executable>
rbdock ($Id: //depot/dev/client3/rdock/2013.1/src/exe/rbdock.cxx#4 $)

>  <Rbt.Library>
libRbt.so (2013.1, Build901 2013/11/27)

>  <Rbt.Parameter_File>
/export/apps/rDock/src/rDock_2013.1_src/data/scripts/dock_solv.prm

>  <Rbt.Receptor>
prm/pocket_docking_5.prm

>  <SCORE>
-14.0588

>  <SCORE.INTER>
-14.0588

>  <SCORE.INTER.CONST>
1

>  <SCORE.INTER.POLAR>
0

>  <SCORE.INTER.ROT>
0

>  <SCORE.INTER.SOLV>
19.3833

>  <SCORE.INTER.VDW>
-19.4336

>  <SCORE.INTER.norm>
-1.17157

>  <SCORE.INTRA>
0

>  <SCORE.INTRA.DIHEDRAL>
0

>  <SCORE.INTRA.DIHEDRAL.0>
0

>  <SCORE.INTRA.POLAR>
0

>  <SCORE.INTRA.POLAR.0>
0

>  <SCORE.INTRA.REPUL>
0

>  <SCORE.INTRA.REPUL.0>
0

>  <SCORE.INTRA.SOLV>
0

>  <SCORE.INTRA.SOLV.lig_0>
-48.1583

>  <SCORE.INTRA.VDW>
0

>  <SCORE.INTRA.VDW.0>
0

>  <SCORE.INTRA.norm>
0

>  <SCORE.RESTR>
0

>  <SCORE.RESTR.CAVITY>
0

>  <SCORE.RESTR.norm>
0

>  <SCORE.SYSTEM>
0

>  <SCORE.SYSTEM.CONST>
0

>  <SCORE.SYSTEM.DIHEDRAL>
0

>  <SCORE.SYSTEM.SOLV>
0

>  <SCORE.SYSTEM.norm>
0

>  <SCORE.heavy>
12

>  <SCORE.norm>
-1.17157

>  <RMSD>
0.480

$$$$
ligand
 OpenBabel02271912143D
libRbt.so/2013.1/901 2013/11/27
 12 13  0  0  0  0  0  0  0  0999 V2000
    6.6885   17.5645    1.8034 C   0  0  0  0  0  0  0  0  0  0  0  0
    5.3752   16.2961    3.2530 C   0  0  0  0  0  0  0  0  0  0  0  0
    7.1749   17.7584    0.5808 N   0  0  0  0  0  0  0  0  0  0  0  0
    4.5959   15.2455    3.5321 N   0  0  0  0  0  0  0  0  0  0  0  0
    5.8956   16.4953    2.0348 N   0  0  0  0  0  0  0  0  0  0  0  0
    6.9712   18.4505    2.7841 N   0  0  0  0  0  0  0  0  0  0  0  0
    5.4412   17.8922    6.5871 N   0  0  0  0  0  0  0  0  0  0  0  0
    6.2640   18.9943    6.3078 C   0  0  0  0  0  0  0  0  0  0  0  0
    6.7905   19.1721    5.0071 N   0  0  0  0  0  0  0  0  0  0  0  0
    6.4772   18.2866    4.0367 C   0  0  0  0  0  0  0  0  0  0  0  0
    5.6494   17.1895    4.2959 C   0  0  0  0  0  0  0  0  0  0  0  0
    5.1207   16.9743    5.5673 C   0  0  0  0  0  0  0  0  0  0  0  0
  1  3  1  0  0  0  0
  1  5  1  0  0  0  0
  1  6  2  0  0  0  0
  2  5  2  0  0  0  0
  2 11  1  0  0  0  0
  2  4  1  0  0  0  0
  6 10  1  0  0  0  0
  7  8  2  0  0  0  0
  7 12  1  0  0  0  0
  8  9  1  0  0  0  0
  9 10  2  0  0  0  0
 10 11  1  0  0  0  0
 11 12  2  0  0  0  0
M  END
>  <CHROM.1>
6.04529772,17.52475303,3.78555800,-1.31709586,0.93414024,1.14457536

>  <Name>
ligand

>  <RI>
0

>  <Rbt.Current_Directory>
/home/itssahil/PROJECTS/Mol_Feturizer/Test_systems_manuscript/rnas/4lx5

>  <Rbt.Executable>
rbdock ($Id: //depot/dev/client3/rdock/2013.1/src/exe/rbdock.cxx#4 $)

>  <Rbt.Library>
libRbt.so (2013.1, Build901 2013/11/27)

>  <Rbt.Parameter_File>
/export/apps/rDock/src/rDock_2013.1_src/data/scripts/dock_solv.prm

>  <Rbt.Receptor>
prm/blind_docking_80.prm

>  <SCORE>
-14.1284

>  <SCORE.INTER>
-14.1284

>  <SCORE.INTER.CONST>
1

>  <SCORE.INTER.POLAR>
0

>  <SCORE.INTER.ROT>
0

>  <SCORE.INTER.SOLV>
19.1419

>  <SCORE.INTER.VDW>
-19.3996

>  <SCORE.INTER.norm>
-1.17737

>  <SCORE.INTRA>
0

>  <SCORE.INTRA.DIHEDRAL>
0

>  <SCORE.INTRA.DIHEDRAL.0>
0

>  <SCORE.INTRA.POLAR>
0

>  <SCORE.INTRA.POLAR.0>
0

>  <SCORE.INTRA.REPUL>
0

>  <SCORE.INTRA.REPUL.0>
0

>  <SCORE.INTRA.SOLV>
0

>  <SCORE.INTRA.SOLV.lig_0>
-48.1583

>  <SCORE.INTRA.VDW>
0

>  <SCORE.INTRA.VDW.0>
0

>  <SCORE.INTRA.norm>
0

>  <SCORE.RESTR>
0

>  <SCORE.RESTR.CAVITY>
0

>  <SCORE.RESTR.norm>
0

>  <SCORE.SYSTEM>
0

>  <SCORE.SYSTEM.CONST>
0

>  <SCORE.SYSTEM.DIHEDRAL>
0

>  <SCORE.SYSTEM.SOLV>
0

>  <SCORE.SYSTEM.norm>
0

>  <SCORE.heavy>
12

>  <SCORE.norm>
-1.17737

>  <RMSD>
0.481

$$$$
ligand
 OpenBabel02271912143D
libRbt.so/2013.1/901 2013/11/27
 12 13  0  0  0  0  0  0  0  0999 V2000
    6.7065   17.5710    1.8102 C   0  0  0  0  0  0  0  0  0  0  0  0
    5.3897   16.2952    3.2500 C   0  0  0  0  0  0  0  0  0  0  0  0
    7.2006   17.7679    0.5912 N   0  0  0  0  0  0  0  0  0  0  0  0
    4.6140   15.2404    3.5232 N   0  0  0  0  0  0  0  0  0  0  0  0
    5.9178   16.4976    2.0356 N   0  0  0  0  0  0  0  0  0  0  0  0
    6.9774   18.4582    2.7931 N   0  0  0  0  0  0  0  0  0  0  0  0
    5.4233   17.8907    6.5848 N   0  0  0  0  0  0  0  0  0  0  0  0
    6.2422   18.9972    6.3118 C   0  0  0  0  0  0  0  0  0  0  0  0
    6.7770   19.1782    5.0150 N   0  0  0  0  0  0  0  0  0  0  0  0
    6.4754   18.2913    4.0421 C   0  0  0  0  0  0  0  0  0  0  0  0
    5.6516   17.1898    4.2950 C   0  0  0  0  0  0  0  0  0  0  0  0
    5.1150   16.9714    5.5626 C   0  0  0  0  0  0  0  0  0  0  0  0
  1  3  1  0  0  0  0
  1  5  1  0  0  0  0
  1  6  2  0  0  0  0
  2  5  2  0  0  0  0
  2 11  1  0  0  0  0
  2  4  1  0  0  0  0
  6 10  1  0  0  0  0
  7  8  2  0  0  0  0
  7 12  1  0  0  0  0
  8  9  1  0  0  0  0
  9 10  2  0  0  0  0
 10 11  1  0  0  0  0
 11 12  2  0  0  0  0
M  END
>  <CHROM.1>
6.04936246,17.52725615,3.78765127,-1.30237974,0.93598399,1.13300822

>  <Name>
ligand

>  <RI>
0

>  <Rbt.Current_Directory>
/home/itssahil/PROJECTS/Mol_Feturizer/Test_systems_manuscript/rnas/4lx5

>  <Rbt.Executable>
rbdock ($Id: //depot/dev/client3/rdock/2013.1/src/exe/rbdock.cxx#4 $)

>  <Rbt.Library>
libRbt.so (2013.1, Build901 2013/11/27)

>  <Rbt.Parameter_File>
/export/apps/rDock/src/rDock_2013.1_src/data/scripts/dock_solv.prm

>  <Rbt.Receptor>
prm/pocket_docking_5.prm

>  <SCORE>
-14.1255

>  <SCORE.INTER>
-14.1255

>  <SCORE.INTER.CONST>
1

>  <SCORE.INTER.POLAR>
0

>  <SCORE.INTER.ROT>
0

>  <SCORE.INTER.SOLV>
19.2355

>  <SCORE.INTER.VDW>
-19.4289

>  <SCORE.INTER.norm>
-1.17713

>  <SCORE.INTRA>
0

>  <SCORE.INTRA.DIHEDRAL>
0

>  <SCORE.INTRA.DIHEDRAL.0>
0

>  <SCORE.INTRA.POLAR>
0

>  <SCORE.INTRA.POLAR.0>
0

>  <SCORE.INTRA.REPUL>
0

>  <SCORE.INTRA.REPUL.0>
0

>  <SCORE.INTRA.SOLV>
0

>  <SCORE.INTRA.SOLV.lig_0>
-48.1583

>  <SCORE.INTRA.VDW>
0

>  <SCORE.INTRA.VDW.0>
0

>  <SCORE.INTRA.norm>
0

>  <SCORE.RESTR>
0

>  <SCORE.RESTR.CAVITY>
0

>  <SCORE.RESTR.norm>
0

>  <SCORE.SYSTEM>
0

>  <SCORE.SYSTEM.CONST>
0

>  <SCORE.SYSTEM.DIHEDRAL>
0

>  <SCORE.SYSTEM.SOLV>
0

>  <SCORE.SYSTEM.norm>
0

>  <SCORE.heavy>
12

>  <SCORE.norm>
-1.17713

>  <RMSD>
0.481

$$$$
ligand
 OpenBabel02271912143D
libRbt.so/2013.1/901 2013/11/27
 12 13  0  0  0  0  0  0  0  0999 V2000
    6.6651   17.5627    1.8022 C   0  0  0  0  0  0  0  0  0  0  0  0
    5.3522   16.2998    3.2570 C   0  0  0  0  0  0  0  0  0  0  0  0
    7.1472   17.7548    0.5777 N   0  0  0  0  0  0  0  0  0  0  0  0
    4.5694   15.2526    3.5390 N   0  0  0  0  0  0  0  0  0  0  0  0
    5.8684   16.4970    2.0366 N   0  0  0  0  0  0  0  0  0  0  0  0
    6.9559   18.4470    2.7820 N   0  0  0  0  0  0  0  0  0  0  0  0
    5.4396   17.8943    6.5912 N   0  0  0  0  0  0  0  0  0  0  0  0
    6.2662   18.9927    6.3089 C   0  0  0  0  0  0  0  0  0  0  0  0
    6.7880   19.1687    5.0060 N   0  0  0  0  0  0  0  0  0  0  0  0
    6.4666   18.2849    4.0367 C   0  0  0  0  0  0  0  0  0  0  0  0
    5.6348   17.1915    4.2990 C   0  0  0  0  0  0  0  0  0  0  0  0
    5.1106   16.9783    5.5725 C   0  0  0  0  0  0  0  0  0  0  0  0
  1  3  1  0  0  0  0
  1  5  1  0  0  0  0
  1  6  2  0  0  0  0
  2  5  2  0  0  0  0
  2 11  1  0  0  0  0
  2  4  1  0  0  0  0
  6 10  1  0  0  0  0
  7  8  2  0  0  0  0
  7 12  1  0  0  0  0
  8  9  1  0  0  0  0
  9 10  2  0  0  0  0
 10 11  1  0  0  0  0
 11 12  2  0  0  0  0
M  END
>  <CHROM.1>
6.03013834,17.52514265,3.78707673,-1.32672143,0.93173573,1.15265943

>  <Name>
ligand

>  <RI>
0

>  <Rbt.Current_Directory>
/home/itssahil/PROJECTS/Mol_Feturizer/Test_systems_manuscript/rnas/4lx5

>  <Rbt.Executable>
rbdock ($Id: //depot/dev/client3/rdock/2013.1/src/exe/rbdock.cxx#4 $)

>  <Rbt.Library>
libRbt.so (2013.1, Build901 2013/11/27)

>  <Rbt.Parameter_File>
/export/apps/rDock/src/rDock_2013.1_src/data/scripts/dock_solv.prm

>  <Rbt.Receptor>
prm/blind_docking_40.prm

>  <SCORE>
-14.093

>  <SCORE.INTER>
-14.093

>  <SCORE.INTER.CONST>
1

>  <SCORE.INTER.POLAR>
0

>  <SCORE.INTER.ROT>
0

>  <SCORE.INTER.SOLV>
19.0267

>  <SCORE.INTER.VDW>
-19.3375

>  <SCORE.INTER.norm>
-1.17441

>  <SCORE.INTRA>
0

>  <SCORE.INTRA.DIHEDRAL>
0

>  <SCORE.INTRA.DIHEDRAL.0>
0

>  <SCORE.INTRA.POLAR>
0

>  <SCORE.INTRA.POLAR.0>
0

>  <SCORE.INTRA.REPUL>
0

>  <SCORE.INTRA.REPUL.0>
0

>  <SCORE.INTRA.SOLV>
0

>  <SCORE.INTRA.SOLV.lig_0>
-48.1583

>  <SCORE.INTRA.VDW>
0

>  <SCORE.INTRA.VDW.0>
0

>  <SCORE.INTRA.norm>
0

>  <SCORE.RESTR>
0

>  <SCORE.RESTR.CAVITY>
0

>  <SCORE.RESTR.norm>
0

>  <SCORE.SYSTEM>
0

>  <SCORE.SYSTEM.CONST>
0

>  <SCORE.SYSTEM.DIHEDRAL>
0

>  <SCORE.SYSTEM.SOLV>
0

>  <SCORE.SYSTEM.norm>
0

>  <SCORE.heavy>
12

>  <SCORE.norm>
-1.17441

>  <RMSD>
0.485

$$$$
ligand
 OpenBabel02271912143D
libRbt.so/2013.1/901 2013/11/27
 12 13  0  0  0  0  0  0  0  0999 V2000
    6.7579   17.3995    1.8078 C   0  0  0  0  0  0  0  0  0  0  0  0
    5.4007   16.2249    3.2954 C   0  0  0  0  0  0  0  0  0  0  0  0
    7.2669   17.5255    0.5855 N   0  0  0  0  0  0  0  0  0  0  0  0
    4.5997   15.2018    3.6124 N   0  0  0  0  0  0  0  0  0  0  0  0
    5.9437   16.3558    2.0778 N   0  0  0  0  0  0  0  0  0  0  0  0
    7.0398   18.3280    2.7486 N   0  0  0  0  0  0  0  0  0  0  0  0
    5.4404   17.9814    6.5482 N   0  0  0  0  0  0  0  0  0  0  0  0
    6.2859   19.0552    6.2294 C   0  0  0  0  0  0  0  0  0  0  0  0
    6.8359   19.1606    4.9305 N   0  0  0  0  0  0  0  0  0  0  0  0
    6.5233   18.2336    3.9994 C   0  0  0  0  0  0  0  0  0  0  0  0
    5.6732   17.1639    4.2979 C   0  0  0  0  0  0  0  0  0  0  0  0
    5.1209   17.0198    5.5693 C   0  0  0  0  0  0  0  0  0  0  0  0
  1  3  1  0  0  0  0
  1  5  1  0  0  0  0
  1  6  2  0  0  0  0
  2  5  2  0  0  0  0
  2 11  1  0  0  0  0
  2  4  1  0  0  0  0
  6 10  1  0  0  0  0
  7  8  2  0  0  0  0
  7 12  1  0  0  0  0
  8  9  1  0  0  0  0
  9 10  2  0  0  0  0
 10 11  1  0  0  0  0
 11 12  2  0  0  0  0
M  END
>  <CHROM.1>
6.08274770,17.46736899,3.77848596,-1.30474962,0.91230242,1.08577329

>  <Name>
ligand

>  <RI>
0

>  <Rbt.Current_Directory>
/home/itssahil/PROJECTS/Mol_Feturizer/Test_systems_manuscript/rnas/4lx5

>  <Rbt.Executable>
rbdock ($Id: //depot/dev/client3/rdock/2013.1/src/exe/rbdock.cxx#4 $)

>  <Rbt.Library>
libRbt.so (2013.1, Build901 2013/11/27)

>  <Rbt.Parameter_File>
/export/apps/rDock/src/rDock_2013.1_src/data/scripts/dock_solv.prm

>  <Rbt.Receptor>
prm/pocket_docking_3.prm

>  <SCORE>
-14.0448

>  <SCORE.INTER>
-14.0448

>  <SCORE.INTER.CONST>
1

>  <SCORE.INTER.POLAR>
0

>  <SCORE.INTER.ROT>
0

>  <SCORE.INTER.SOLV>
19.5026

>  <SCORE.INTER.VDW>
-19.464

>  <SCORE.INTER.norm>
-1.1704

>  <SCORE.INTRA>
0

>  <SCORE.INTRA.DIHEDRAL>
0

>  <SCORE.INTRA.DIHEDRAL.0>
0

>  <SCORE.INTRA.POLAR>
0

>  <SCORE.INTRA.POLAR.0>
0

>  <SCORE.INTRA.REPUL>
0

>  <SCORE.INTRA.REPUL.0>
0

>  <SCORE.INTRA.SOLV>
0

>  <SCORE.INTRA.SOLV.lig_0>
-48.1583

>  <SCORE.INTRA.VDW>
0

>  <SCORE.INTRA.VDW.0>
0

>  <SCORE.INTRA.norm>
0

>  <SCORE.RESTR>
0

>  <SCORE.RESTR.CAVITY>
0

>  <SCORE.RESTR.norm>
0

>  <SCORE.SYSTEM>
0

>  <SCORE.SYSTEM.CONST>
0

>  <SCORE.SYSTEM.DIHEDRAL>
0

>  <SCORE.SYSTEM.SOLV>
0

>  <SCORE.SYSTEM.norm>
0

>  <SCORE.heavy>
12

>  <SCORE.norm>
-1.1704

>  <RMSD>
0.485

$$$$
ligand
 OpenBabel02271912143D
libRbt.so/2013.1/901 2013/11/27
 12 13  0  0  0  0  0  0  0  0999 V2000
    6.6795   17.5718    1.8136 C   0  0  0  0  0  0  0  0  0  0  0  0
    5.3445   16.3153    3.2538 C   0  0  0  0  0  0  0  0  0  0  0  0
    7.1705   17.7656    0.5929 N   0  0  0  0  0  0  0  0  0  0  0  0
    4.5485   15.2754    3.5254 N   0  0  0  0  0  0  0  0  0  0  0  0
    5.8697   16.5138    2.0374 N   0  0  0  0  0  0  0  0  0  0  0  0
    6.9747   18.4472    2.8001 N   0  0  0  0  0  0  0  0  0  0  0  0
    5.4310   17.8897    6.5976 N   0  0  0  0  0  0  0  0  0  0  0  0
    6.2714   18.9804    6.3263 C   0  0  0  0  0  0  0  0  0  0  0  0
    6.8023   19.1579    5.0273 N   0  0  0  0  0  0  0  0  0  0  0  0
    6.4765   18.2834    4.0511 C   0  0  0  0  0  0  0  0  0  0  0  0
    5.6312   17.1979    4.3025 C   0  0  0  0  0  0  0  0  0  0  0  0
    5.0975   16.9832    5.5718 C   0  0  0  0  0  0  0  0  0  0  0  0
  1  3  1  0  0  0  0
  1  5  1  0  0  0  0
  1  6  2  0  0  0  0
  2  5  2  0  0  0  0
  2 11  1  0  0  0  0
  2  4  1  0  0  0  0
  6 10  1  0  0  0  0
  7  8  2  0  0  0  0
  7 12  1  0  0  0  0
  8  9  1  0  0  0  0
  9 10  2  0  0  0  0
 10 11  1  0  0  0  0
 11 12  2  0  0  0  0
M  END
>  <CHROM.1>
6.03305851,17.53000641,3.79470080,-1.32573058,0.91927314,1.15762240

>  <Name>
ligand

>  <RI>
0

>  <Rbt.Current_Directory>
/home/itssahil/PROJECTS/Mol_Feturizer/Test_systems_manuscript/rnas/4lx5

>  <Rbt.Executable>
rbdock ($Id: //depot/dev/client3/rdock/2013.1/src/exe/rbdock.cxx#4 $)

>  <Rbt.Library>
libRbt.so (2013.1, Build901 2013/11/27)

>  <Rbt.Parameter_File>
/export/apps/rDock/src/rDock_2013.1_src/data/scripts/dock_solv.prm

>  <Rbt.Receptor>
prm/pocket_docking_3.prm

>  <SCORE>
-14.1167

>  <SCORE.INTER>
-14.1167

>  <SCORE.INTER.CONST>
1

>  <SCORE.INTER.POLAR>
0

>  <SCORE.INTER.ROT>
0

>  <SCORE.INTER.SOLV>
18.9448

>  <SCORE.INTER.VDW>
-19.326

>  <SCORE.INTER.norm>
-1.17639

>  <SCORE.INTRA>
0

>  <SCORE.INTRA.DIHEDRAL>
0

>  <SCORE.INTRA.DIHEDRAL.0>
0

>  <SCORE.INTRA.POLAR>
0

>  <SCORE.INTRA.POLAR.0>
0

>  <SCORE.INTRA.REPUL>
0

>  <SCORE.INTRA.REPUL.0>
0

>  <SCORE.INTRA.SOLV>
0

>  <SCORE.INTRA.SOLV.lig_0>
-48.1583

>  <SCORE.INTRA.VDW>
0

>  <SCORE.INTRA.VDW.0>
0

>  <SCORE.INTRA.norm>
0

>  <SCORE.RESTR>
0

>  <SCORE.RESTR.CAVITY>
0

>  <SCORE.RESTR.norm>
0

>  <SCORE.SYSTEM>
0

>  <SCORE.SYSTEM.CONST>
0

>  <SCORE.SYSTEM.DIHEDRAL>
0

>  <SCORE.SYSTEM.SOLV>
0

>  <SCORE.SYSTEM.norm>
0

>  <SCORE.heavy>
12

>  <SCORE.norm>
-1.17639

>  <RMSD>
0.489

$$$$
ligand
 OpenBabel02271912143D
libRbt.so/2013.1/901 2013/11/27
 12 13  0  0  0  0  0  0  0  0999 V2000
    6.6234   17.5574    1.7928 C   0  0  0  0  0  0  0  0  0  0  0  0
    5.3297   16.2920    3.2626 C   0  0  0  0  0  0  0  0  0  0  0  0
    7.0935   17.7487    0.5635 N   0  0  0  0  0  0  0  0  0  0  0  0
    4.5544   15.2419    3.5543 N   0  0  0  0  0  0  0  0  0  0  0  0
    5.8339   16.4887    2.0371 N   0  0  0  0  0  0  0  0  0  0  0  0
    6.9190   18.4456    2.7677 N   0  0  0  0  0  0  0  0  0  0  0  0
    5.4398   17.8954    6.5919 N   0  0  0  0  0  0  0  0  0  0  0  0
    6.2586   18.9970    6.2994 C   0  0  0  0  0  0  0  0  0  0  0  0
    6.7677   19.1720    4.9914 N   0  0  0  0  0  0  0  0  0  0  0  0
    6.4417   18.2844    4.0272 C   0  0  0  0  0  0  0  0  0  0  0  0
    5.6176   17.1878    4.2997 C   0  0  0  0  0  0  0  0  0  0  0  0
    5.1059   16.9753    5.5785 C   0  0  0  0  0  0  0  0  0  0  0  0
  1  3  1  0  0  0  0
  1  5  1  0  0  0  0
  1  6  2  0  0  0  0
  2  5  2  0  0  0  0
  2 11  1  0  0  0  0
  2  4  1  0  0  0  0
  6 10  1  0  0  0  0
  7  8  2  0  0  0  0
  7 12  1  0  0  0  0
  8  9  1  0  0  0  0
  9 10  2  0  0  0  0
 10 11  1  0  0  0  0
 11 12  2  0  0  0  0
M  END
>  <CHROM.1>
6.00663039,17.52191786,3.78344655,-1.33750234,0.93968379,1.15883135

>  <Name>
ligand

>  <RI>
0

>  <Rbt.Current_Directory>
/home/itssahil/PROJECTS/Mol_Feturizer/Test_systems_manuscript/rnas/4lx5

>  <Rbt.Executable>
rbdock ($Id: //depot/dev/client3/rdock/2013.1/src/exe/rbdock.cxx#4 $)

>  <Rbt.Library>
libRbt.so (2013.1, Build901 2013/11/27)

>  <Rbt.Parameter_File>
/export/apps/rDock/src/rDock_2013.1_src/data/scripts/dock_solv.prm

>  <Rbt.Receptor>
prm/pocket_docking_6.prm

>  <SCORE>
-14.0518

>  <SCORE.INTER>
-14.0518

>  <SCORE.INTER.CONST>
1

>  <SCORE.INTER.POLAR>
0

>  <SCORE.INTER.ROT>
0

>  <SCORE.INTER.SOLV>
18.9578

>  <SCORE.INTER.VDW>
-19.2871

>  <SCORE.INTER.norm>
-1.17098

>  <SCORE.INTRA>
0

>  <SCORE.INTRA.DIHEDRAL>
0

>  <SCORE.INTRA.DIHEDRAL.0>
0

>  <SCORE.INTRA.POLAR>
0

>  <SCORE.INTRA.POLAR.0>
0

>  <SCORE.INTRA.REPUL>
0

>  <SCORE.INTRA.REPUL.0>
0

>  <SCORE.INTRA.SOLV>
0

>  <SCORE.INTRA.SOLV.lig_0>
-48.1583

>  <SCORE.INTRA.VDW>
0

>  <SCORE.INTRA.VDW.0>
0

>  <SCORE.INTRA.norm>
0

>  <SCORE.RESTR>
0

>  <SCORE.RESTR.CAVITY>
0

>  <SCORE.RESTR.norm>
0

>  <SCORE.SYSTEM>
0

>  <SCORE.SYSTEM.CONST>
0

>  <SCORE.SYSTEM.DIHEDRAL>
0

>  <SCORE.SYSTEM.SOLV>
0

>  <SCORE.SYSTEM.norm>
0

>  <SCORE.heavy>
12

>  <SCORE.norm>
-1.17098

>  <RMSD>
0.489

$$$$
ligand
 OpenBabel02271912143D
libRbt.so/2013.1/901 2013/11/27
 12 13  0  0  0  0  0  0  0  0999 V2000
    6.6967   17.5723    1.8210 C   0  0  0  0  0  0  0  0  0  0  0  0
    5.3748   16.2979    3.2575 C   0  0  0  0  0  0  0  0  0  0  0  0
    7.1932   17.7694    0.6030 N   0  0  0  0  0  0  0  0  0  0  0  0
    4.5967   15.2443    3.5284 N   0  0  0  0  0  0  0  0  0  0  0  0
    5.9054   16.5003    2.0441 N   0  0  0  0  0  0  0  0  0  0  0  0
    6.9677   18.4581    2.8052 N   0  0  0  0  0  0  0  0  0  0  0  0
    5.4060   17.8902    6.5938 N   0  0  0  0  0  0  0  0  0  0  0  0
    6.2276   18.9953    6.3232 C   0  0  0  0  0  0  0  0  0  0  0  0
    6.7649   19.1765    5.0274 N   0  0  0  0  0  0  0  0  0  0  0  0
    6.4632   18.2911    4.0532 C   0  0  0  0  0  0  0  0  0  0  0  0
    5.6368   17.1909    4.3038 C   0  0  0  0  0  0  0  0  0  0  0  0
    5.0976   16.9725    5.5702 C   0  0  0  0  0  0  0  0  0  0  0  0
  1  3  1  0  0  0  0
  1  5  1  0  0  0  0
  1  6  2  0  0  0  0
  2  5  2  0  0  0  0
  2 11  1  0  0  0  0
  2  4  1  0  0  0  0
  6 10  1  0  0  0  0
  7  8  2  0  0  0  0
  7 12  1  0  0  0  0
  8  9  1  0  0  0  0
  9 10  2  0  0  0  0
 10 11  1  0  0  0  0
 11 12  2  0  0  0  0
M  END
>  <CHROM.1>
6.03608592,17.52809909,3.79734968,-1.30123252,0.93348015,1.13300170

>  <Name>
ligand

>  <RI>
0

>  <Rbt.Current_Directory>
/home/itssahil/PROJECTS/Mol_Feturizer/Test_systems_manuscript/rnas/4lx5

>  <Rbt.Executable>
rbdock ($Id: //depot/dev/client3/rdock/2013.1/src/exe/rbdock.cxx#4 $)

>  <Rbt.Library>
libRbt.so (2013.1, Build901 2013/11/27)

>  <Rbt.Parameter_File>
/export/apps/rDock/src/rDock_2013.1_src/data/scripts/dock_solv.prm

>  <Rbt.Receptor>
prm/blind_docking_40.prm

>  <SCORE>
-14.0785

>  <SCORE.INTER>
-14.0785

>  <SCORE.INTER.CONST>
1

>  <SCORE.INTER.POLAR>
0

>  <SCORE.INTER.ROT>
0

>  <SCORE.INTER.SOLV>
19.1807

>  <SCORE.INTER.VDW>
-19.3792

>  <SCORE.INTER.norm>
-1.17321

>  <SCORE.INTRA>
0

>  <SCORE.INTRA.DIHEDRAL>
0

>  <SCORE.INTRA.DIHEDRAL.0>
0

>  <SCORE.INTRA.POLAR>
0

>  <SCORE.INTRA.POLAR.0>
0

>  <SCORE.INTRA.REPUL>
0

>  <SCORE.INTRA.REPUL.0>
0

>  <SCORE.INTRA.SOLV>
0

>  <SCORE.INTRA.SOLV.lig_0>
-48.1583

>  <SCORE.INTRA.VDW>
0

>  <SCORE.INTRA.VDW.0>
0

>  <SCORE.INTRA.norm>
0

>  <SCORE.RESTR>
0

>  <SCORE.RESTR.CAVITY>
0

>  <SCORE.RESTR.norm>
0

>  <SCORE.SYSTEM>
0

>  <SCORE.SYSTEM.CONST>
0

>  <SCORE.SYSTEM.DIHEDRAL>
0

>  <SCORE.SYSTEM.SOLV>
0

>  <SCORE.SYSTEM.norm>
0

>  <SCORE.heavy>
12

>  <SCORE.norm>
-1.17321

>  <RMSD>
0.490

$$$$
ligand
 OpenBabel02271912143D
libRbt.so/2013.1/901 2013/11/27
 12 13  0  0  0  0  0  0  0  0999 V2000
    6.6489   17.5662    1.8159 C   0  0  0  0  0  0  0  0  0  0  0  0
    5.3176   16.3297    3.2766 C   0  0  0  0  0  0  0  0  0  0  0  0
    7.1319   17.7468    0.5899 N   0  0  0  0  0  0  0  0  0  0  0  0
    4.5177   15.2967    3.5629 N   0  0  0  0  0  0  0  0  0  0  0  0
    5.8348   16.5149    2.0547 N   0  0  0  0  0  0  0  0  0  0  0  0
    6.9565   18.4482    2.7927 N   0  0  0  0  0  0  0  0  0  0  0  0
    5.4382   17.9317    6.6062 N   0  0  0  0  0  0  0  0  0  0  0  0
    6.2827   19.0152    6.3193 C   0  0  0  0  0  0  0  0  0  0  0  0
    6.8049   19.1787    5.0150 N   0  0  0  0  0  0  0  0  0  0  0  0
    6.4668   18.2979    4.0487 C   0  0  0  0  0  0  0  0  0  0  0  0
    5.6172   17.2194    4.3156 C   0  0  0  0  0  0  0  0  0  0  0  0
    5.0918   17.0186    5.5907 C   0  0  0  0  0  0  0  0  0  0  0  0
  1  3  1  0  0  0  0
  1  5  1  0  0  0  0
  1  6  2  0  0  0  0
  2  5  2  0  0  0  0
  2 11  1  0  0  0  0
  2  4  1  0  0  0  0
  6 10  1  0  0  0  0
  7  8  2  0  0  0  0
  7 12  1  0  0  0  0
  8  9  1  0  0  0  0
  9 10  2  0  0  0  0
 10 11  1  0  0  0  0
 11 12  2  0  0  0  0
M  END
>  <CHROM.1>
6.01713542,17.54489341,3.80202072,-1.34081848,0.91700003,1.16114630

>  <Name>
ligand

>  <RI>
0

>  <Rbt.Current_Directory>
/home/itssahil/PROJECTS/Mol_Feturizer/Test_systems_manuscript/rnas/4lx5

>  <Rbt.Executable>
rbdock ($Id: //depot/dev/client3/rdock/2013.1/src/exe/rbdock.cxx#4 $)

>  <Rbt.Library>
libRbt.so (2013.1, Build901 2013/11/27)

>  <Rbt.Parameter_File>
/export/apps/rDock/src/rDock_2013.1_src/data/scripts/dock_solv.prm

>  <Rbt.Receptor>
prm/pocket_docking_8.prm

>  <SCORE>
-14.0748

>  <SCORE.INTER>
-14.0748

>  <SCORE.INTER.CONST>
1

>  <SCORE.INTER.POLAR>
0

>  <SCORE.INTER.ROT>
0

>  <SCORE.INTER.SOLV>
18.7861

>  <SCORE.INTER.VDW>
-19.2452

>  <SCORE.INTER.norm>
-1.1729

>  <SCORE.INTRA>
0

>  <SCORE.INTRA.DIHEDRAL>
0

>  <SCORE.INTRA.DIHEDRAL.0>
0

>  <SCORE.INTRA.POLAR>
0

>  <SCORE.INTRA.POLAR.0>
0

>  <SCORE.INTRA.REPUL>
0

>  <SCORE.INTRA.REPUL.0>
0

>  <SCORE.INTRA.SOLV>
0

>  <SCORE.INTRA.SOLV.lig_0>
-48.1583

>  <SCORE.INTRA.VDW>
0

>  <SCORE.INTRA.VDW.0>
0

>  <SCORE.INTRA.norm>
0

>  <SCORE.RESTR>
0

>  <SCORE.RESTR.CAVITY>
0

>  <SCORE.RESTR.norm>
0

>  <SCORE.SYSTEM>
0

>  <SCORE.SYSTEM.CONST>
0

>  <SCORE.SYSTEM.DIHEDRAL>
0

>  <SCORE.SYSTEM.SOLV>
0

>  <SCORE.SYSTEM.norm>
0

>  <SCORE.heavy>
12

>  <SCORE.norm>
-1.1729

>  <RMSD>
0.509

$$$$
ligand
 OpenBabel02271912143D
libRbt.so/2013.1/901 2013/11/27
 12 13  0  0  0  0  0  0  0  0999 V2000
    6.6615   17.5353    1.7933 C   0  0  0  0  0  0  0  0  0  0  0  0
    5.3966   16.2845    3.3001 C   0  0  0  0  0  0  0  0  0  0  0  0
    7.1289   17.7001    0.5591 N   0  0  0  0  0  0  0  0  0  0  0  0
    4.6468   15.2251    3.6234 N   0  0  0  0  0  0  0  0  0  0  0  0
    5.8980   16.4555    2.0697 N   0  0  0  0  0  0  0  0  0  0  0  0
    6.9333   18.4602    2.7406 N   0  0  0  0  0  0  0  0  0  0  0  0
    5.4612   17.9923    6.5784 N   0  0  0  0  0  0  0  0  0  0  0  0
    6.2533   19.1041    6.2527 C   0  0  0  0  0  0  0  0  0  0  0  0
    6.7603   19.2511    4.9405 N   0  0  0  0  0  0  0  0  0  0  0  0
    6.4579   18.3263    4.0039 C   0  0  0  0  0  0  0  0  0  0  0  0
    5.6605   17.2187    4.3094 C   0  0  0  0  0  0  0  0  0  0  0  0
    5.1519   17.0333    5.5936 C   0  0  0  0  0  0  0  0  0  0  0  0
  1  3  1  0  0  0  0
  1  5  1  0  0  0  0
  1  6  2  0  0  0  0
  2  5  2  0  0  0  0
  2 11  1  0  0  0  0
  2  4  1  0  0  0  0
  6 10  1  0  0  0  0
  7  8  2  0  0  0  0
  7 12  1  0  0  0  0
  8  9  1  0  0  0  0
  9 10  2  0  0  0  0
 10 11  1  0  0  0  0
 11 12  2  0  0  0  0
M  END
>  <CHROM.1>
6.04216112,17.54620907,3.78339895,-1.31739873,0.96139970,1.11152188

>  <Name>
ligand

>  <RI>
0

>  <Rbt.Current_Directory>
/home/itssahil/PROJECTS/Mol_Feturizer/Test_systems_manuscript/rnas/4lx5

>  <Rbt.Executable>
rbdock ($Id: //depot/dev/client3/rdock/2013.1/src/exe/rbdock.cxx#4 $)

>  <Rbt.Library>
libRbt.so (2013.1, Build901 2013/11/27)

>  <Rbt.Parameter_File>
/export/apps/rDock/src/rDock_2013.1_src/data/scripts/dock_solv.prm

>  <Rbt.Receptor>
prm/pocket_docking_8.prm

>  <SCORE>
-14.058

>  <SCORE.INTER>
-14.058

>  <SCORE.INTER.CONST>
1

>  <SCORE.INTER.POLAR>
0

>  <SCORE.INTER.ROT>
0

>  <SCORE.INTER.SOLV>
19.3577

>  <SCORE.INTER.VDW>
-19.4245

>  <SCORE.INTER.norm>
-1.1715

>  <SCORE.INTRA>
0

>  <SCORE.INTRA.DIHEDRAL>
0

>  <SCORE.INTRA.DIHEDRAL.0>
0

>  <SCORE.INTRA.POLAR>
0

>  <SCORE.INTRA.POLAR.0>
0

>  <SCORE.INTRA.REPUL>
0

>  <SCORE.INTRA.REPUL.0>
0

>  <SCORE.INTRA.SOLV>
0

>  <SCORE.INTRA.SOLV.lig_0>
-48.1583

>  <SCORE.INTRA.VDW>
0

>  <SCORE.INTRA.VDW.0>
0

>  <SCORE.INTRA.norm>
0

>  <SCORE.RESTR>
0

>  <SCORE.RESTR.CAVITY>
0

>  <SCORE.RESTR.norm>
0

>  <SCORE.SYSTEM>
0

>  <SCORE.SYSTEM.CONST>
0

>  <SCORE.SYSTEM.DIHEDRAL>
0

>  <SCORE.SYSTEM.SOLV>
0

>  <SCORE.SYSTEM.norm>
0

>  <SCORE.heavy>
12

>  <SCORE.norm>
-1.1715

>  <RMSD>
0.509

$$$$
ligand
 OpenBabel02271912143D
libRbt.so/2013.1/901 2013/11/27
 12 13  0  0  0  0  0  0  0  0999 V2000
    6.7695   17.3879    1.8515 C   0  0  0  0  0  0  0  0  0  0  0  0
    5.3790   16.2295    3.3210 C   0  0  0  0  0  0  0  0  0  0  0  0
    7.2920   17.5108    0.6347 N   0  0  0  0  0  0  0  0  0  0  0  0
    4.5582   15.2183    3.6258 N   0  0  0  0  0  0  0  0  0  0  0  0
    5.9357   16.3566    2.1091 N   0  0  0  0  0  0  0  0  0  0  0  0
    7.0576   18.3075    2.7992 N   0  0  0  0  0  0  0  0  0  0  0  0
    5.4167   17.9709    6.5819 N   0  0  0  0  0  0  0  0  0  0  0  0
    6.2827   19.0320    6.2758 C   0  0  0  0  0  0  0  0  0  0  0  0
    6.8467   19.1339    4.9827 N   0  0  0  0  0  0  0  0  0  0  0  0
    6.5278   18.2163    4.0445 C   0  0  0  0  0  0  0  0  0  0  0  0
    5.6573   17.1595    4.3302 C   0  0  0  0  0  0  0  0  0  0  0  0
    5.0906   17.0190    5.5956 C   0  0  0  0  0  0  0  0  0  0  0  0
  1  3  1  0  0  0  0
  1  5  1  0  0  0  0
  1  6  2  0  0  0  0
  2  5  2  0  0  0  0
  2 11  1  0  0  0  0
  2  4  1  0  0  0  0
  6 10  1  0  0  0  0
  7  8  2  0  0  0  0
  7 12  1  0  0  0  0
  8  9  1  0  0  0  0
  9 10  2  0  0  0  0
 10 11  1  0  0  0  0
 11 12  2  0  0  0  0
M  END
>  <CHROM.1>
6.07676331,17.45836429,3.81605195,-1.30356946,0.89326752,1.08926068

>  <Name>
ligand

>  <RI>
0

>  <Rbt.Current_Directory>
/home/itssahil/PROJECTS/Mol_Feturizer/Test_systems_manuscript/rnas/4lx5

>  <Rbt.Executable>
rbdock ($Id: //depot/dev/client3/rdock/2013.1/src/exe/rbdock.cxx#4 $)

>  <Rbt.Library>
libRbt.so (2013.1, Build901 2013/11/27)

>  <Rbt.Parameter_File>
/export/apps/rDock/src/rDock_2013.1_src/data/scripts/dock_solv.prm

>  <Rbt.Receptor>
prm/pocket_docking_3.prm

>  <SCORE>
-14.0826

>  <SCORE.INTER>
-14.0826

>  <SCORE.INTER.CONST>
1

>  <SCORE.INTER.POLAR>
0

>  <SCORE.INTER.ROT>
0

>  <SCORE.INTER.SOLV>
19.3933

>  <SCORE.INTER.VDW>
-19.4528

>  <SCORE.INTER.norm>
-1.17355

>  <SCORE.INTRA>
0

>  <SCORE.INTRA.DIHEDRAL>
0

>  <SCORE.INTRA.DIHEDRAL.0>
0

>  <SCORE.INTRA.POLAR>
0

>  <SCORE.INTRA.POLAR.0>
0

>  <SCORE.INTRA.REPUL>
0

>  <SCORE.INTRA.REPUL.0>
0

>  <SCORE.INTRA.SOLV>
0

>  <SCORE.INTRA.SOLV.lig_0>
-48.1583

>  <SCORE.INTRA.VDW>
0

>  <SCORE.INTRA.VDW.0>
0

>  <SCORE.INTRA.norm>
0

>  <SCORE.RESTR>
0

>  <SCORE.RESTR.CAVITY>
0

>  <SCORE.RESTR.norm>
0

>  <SCORE.SYSTEM>
0

>  <SCORE.SYSTEM.CONST>
0

>  <SCORE.SYSTEM.DIHEDRAL>
0

>  <SCORE.SYSTEM.SOLV>
0

>  <SCORE.SYSTEM.norm>
0

>  <SCORE.heavy>
12

>  <SCORE.norm>
-1.17355

>  <RMSD>
0.513

$$$$
ligand
 OpenBabel02271912143D
libRbt.so/2013.1/901 2013/11/27
 12 13  0  0  0  0  0  0  0  0999 V2000
    6.6980   17.6325    1.8098 C   0  0  0  0  0  0  0  0  0  0  0  0
    5.3993   16.3571    3.2664 C   0  0  0  0  0  0  0  0  0  0  0  0
    7.1845   17.8237    0.5868 N   0  0  0  0  0  0  0  0  0  0  0  0
    4.6343   15.2978    3.5520 N   0  0  0  0  0  0  0  0  0  0  0  0
    5.9198   16.5541    2.0478 N   0  0  0  0  0  0  0  0  0  0  0  0
    6.9659   18.5300    2.7841 N   0  0  0  0  0  0  0  0  0  0  0  0
    5.4350   17.9801    6.5879 N   0  0  0  0  0  0  0  0  0  0  0  0
    6.2429   19.0914    6.3019 C   0  0  0  0  0  0  0  0  0  0  0  0
    6.7699   19.2665    5.0010 N   0  0  0  0  0  0  0  0  0  0  0  0
    6.4714   18.3690    4.0369 C   0  0  0  0  0  0  0  0  0  0  0  0
    5.6584   17.2625    4.3028 C   0  0  0  0  0  0  0  0  0  0  0  0
    5.1299   17.0498    5.5747 C   0  0  0  0  0  0  0  0  0  0  0  0
  1  3  1  0  0  0  0
  1  5  1  0  0  0  0
  1  6  2  0  0  0  0
  2  5  2  0  0  0  0
  2 11  1  0  0  0  0
  2  4  1  0  0  0  0
  6 10  1  0  0  0  0
  7  8  2  0  0  0  0
  7 12  1  0  0  0  0
  8  9  1  0  0  0  0
  9 10  2  0  0  0  0
 10 11  1  0  0  0  0
 11 12  2  0  0  0  0
M  END
>  <CHROM.1>
6.05080849,17.59922114,3.79073570,-1.30349868,0.94596815,1.12573555

>  <Name>
ligand

>  <RI>
0

>  <Rbt.Current_Directory>
/home/itssahil/PROJECTS/Mol_Feturizer/Test_systems_manuscript/rnas/4lx5

>  <Rbt.Executable>
rbdock ($Id: //depot/dev/client3/rdock/2013.1/src/exe/rbdock.cxx#4 $)

>  <Rbt.Library>
libRbt.so (2013.1, Build901 2013/11/27)

>  <Rbt.Parameter_File>
/export/apps/rDock/src/rDock_2013.1_src/data/scripts/dock_solv.prm

>  <Rbt.Receptor>
prm/blind_docking_60.prm

>  <SCORE>
-14.0487

>  <SCORE.INTER>
-14.0487

>  <SCORE.INTER.CONST>
1

>  <SCORE.INTER.POLAR>
0

>  <SCORE.INTER.ROT>
0

>  <SCORE.INTER.SOLV>
19.3013

>  <SCORE.INTER.VDW>
-19.3995

>  <SCORE.INTER.norm>
-1.17072

>  <SCORE.INTRA>
0

>  <SCORE.INTRA.DIHEDRAL>
0

>  <SCORE.INTRA.DIHEDRAL.0>
0

>  <SCORE.INTRA.POLAR>
0

>  <SCORE.INTRA.POLAR.0>
0

>  <SCORE.INTRA.REPUL>
0

>  <SCORE.INTRA.REPUL.0>
0

>  <SCORE.INTRA.SOLV>
0

>  <SCORE.INTRA.SOLV.lig_0>
-48.1583

>  <SCORE.INTRA.VDW>
0

>  <SCORE.INTRA.VDW.0>
0

>  <SCORE.INTRA.norm>
0

>  <SCORE.RESTR>
0

>  <SCORE.RESTR.CAVITY>
0

>  <SCORE.RESTR.norm>
0

>  <SCORE.SYSTEM>
0

>  <SCORE.SYSTEM.CONST>
0

>  <SCORE.SYSTEM.DIHEDRAL>
0

>  <SCORE.SYSTEM.SOLV>
0

>  <SCORE.SYSTEM.norm>
0

>  <SCORE.heavy>
12

>  <SCORE.norm>
-1.17072

>  <RMSD>
0.515

$$$$
ligand
 OpenBabel02271912143D
libRbt.so/2013.1/901 2013/11/27
 12 13  0  0  0  0  0  0  0  0999 V2000
    6.6226   17.6044    1.7756 C   0  0  0  0  0  0  0  0  0  0  0  0
    5.4003   16.3176    3.2872 C   0  0  0  0  0  0  0  0  0  0  0  0
    7.0699   17.7891    0.5368 N   0  0  0  0  0  0  0  0  0  0  0  0
    4.6733   15.2423    3.6103 N   0  0  0  0  0  0  0  0  0  0  0  0
    5.8816   16.5090    2.0518 N   0  0  0  0  0  0  0  0  0  0  0  0
    6.8917   18.5247    2.7282 N   0  0  0  0  0  0  0  0  0  0  0  0
    5.4812   17.9945    6.5810 N   0  0  0  0  0  0  0  0  0  0  0  0
    6.2495   19.1229    6.2555 C   0  0  0  0  0  0  0  0  0  0  0  0
    6.7357   19.2913    4.9380 N   0  0  0  0  0  0  0  0  0  0  0  0
    6.4362   18.3705    3.9965 C   0  0  0  0  0  0  0  0  0  0  0  0
    5.6622   17.2464    4.3019 C   0  0  0  0  0  0  0  0  0  0  0  0
    5.1747   17.0399    5.5911 C   0  0  0  0  0  0  0  0  0  0  0  0
  1  3  1  0  0  0  0
  1  5  1  0  0  0  0
  1  6  2  0  0  0  0
  2  5  2  0  0  0  0
  2 11  1  0  0  0  0
  2  4  1  0  0  0  0
  6 10  1  0  0  0  0
  7  8  2  0  0  0  0
  7 12  1  0  0  0  0
  8  9  1  0  0  0  0
  9 10  2  0  0  0  0
 10 11  1  0  0  0  0
 11 12  2  0  0  0  0
M  END
>  <CHROM.1>
6.03083767,17.58548256,3.77404686,-1.32617179,0.98286448,1.12854076

>  <Name>
ligand

>  <RI>
0

>  <Rbt.Current_Directory>
/home/itssahil/PROJECTS/Mol_Feturizer/Test_systems_manuscript/rnas/4lx5

>  <Rbt.Executable>
rbdock ($Id: //depot/dev/client3/rdock/2013.1/src/exe/rbdock.cxx#4 $)

>  <Rbt.Library>
libRbt.so (2013.1, Build901 2013/11/27)

>  <Rbt.Parameter_File>
/export/apps/rDock/src/rDock_2013.1_src/data/scripts/dock_solv.prm

>  <Rbt.Receptor>
prm/pocket_docking_8.prm

>  <SCORE>
-14.029

>  <SCORE.INTER>
-14.029

>  <SCORE.INTER.CONST>
1

>  <SCORE.INTER.POLAR>
0

>  <SCORE.INTER.ROT>
0

>  <SCORE.INTER.SOLV>
19.451

>  <SCORE.INTER.VDW>
-19.4363

>  <SCORE.INTER.norm>
-1.16909

>  <SCORE.INTRA>
0

>  <SCORE.INTRA.DIHEDRAL>
0

>  <SCORE.INTRA.DIHEDRAL.0>
0

>  <SCORE.INTRA.POLAR>
0

>  <SCORE.INTRA.POLAR.0>
0

>  <SCORE.INTRA.REPUL>
0

>  <SCORE.INTRA.REPUL.0>
0

>  <SCORE.INTRA.SOLV>
0

>  <SCORE.INTRA.SOLV.lig_0>
-48.1583

>  <SCORE.INTRA.VDW>
0

>  <SCORE.INTRA.VDW.0>
0

>  <SCORE.INTRA.norm>
0

>  <SCORE.RESTR>
0

>  <SCORE.RESTR.CAVITY>
0

>  <SCORE.RESTR.norm>
0

>  <SCORE.SYSTEM>
0

>  <SCORE.SYSTEM.CONST>
0

>  <SCORE.SYSTEM.DIHEDRAL>
0

>  <SCORE.SYSTEM.SOLV>
0

>  <SCORE.SYSTEM.norm>
0

>  <SCORE.heavy>
12

>  <SCORE.norm>
-1.16909

>  <RMSD>
0.518

$$$$
ligand
 OpenBabel02271912143D
libRbt.so/2013.1/901 2013/11/27
 12 13  0  0  0  0  0  0  0  0999 V2000
    6.6160   17.6502    1.7765 C   0  0  0  0  0  0  0  0  0  0  0  0
    5.3223   16.3951    3.2550 C   0  0  0  0  0  0  0  0  0  0  0  0
    7.0810   17.8366    0.5445 N   0  0  0  0  0  0  0  0  0  0  0  0
    4.5424   15.3501    3.5526 N   0  0  0  0  0  0  0  0  0  0  0  0
    5.8215   16.5866    2.0267 N   0  0  0  0  0  0  0  0  0  0  0  0
    6.9216   18.5385    2.7483 N   0  0  0  0  0  0  0  0  0  0  0  0
    5.4583   18.0040    6.5808 N   0  0  0  0  0  0  0  0  0  0  0  0
    6.2821   19.1002    6.2822 C   0  0  0  0  0  0  0  0  0  0  0  0
    6.7857   19.2699    4.9713 N   0  0  0  0  0  0  0  0  0  0  0  0
    6.4497   18.3824    4.0104 C   0  0  0  0  0  0  0  0  0  0  0  0
    5.6205   17.2911    4.2891 C   0  0  0  0  0  0  0  0  0  0  0  0
    5.1140   17.0839    5.5708 C   0  0  0  0  0  0  0  0  0  0  0  0
  1  3  1  0  0  0  0
  1  5  1  0  0  0  0
  1  6  2  0  0  0  0
  2  5  2  0  0  0  0
  2 11  1  0  0  0  0
  2  4  1  0  0  0  0
  6 10  1  0  0  0  0
  7  8  2  0  0  0  0
  7 12  1  0  0  0  0
  8  9  1  0  0  0  0
  9 10  2  0  0  0  0
 10 11  1  0  0  0  0
 11 12  2  0  0  0  0
M  END
>  <CHROM.1>
6.00896812,17.62201552,3.77025515,-1.34912693,0.93632638,1.16635305

>  <Name>
ligand

>  <RI>
0

>  <Rbt.Current_Directory>
/home/itssahil/PROJECTS/Mol_Feturizer/Test_systems_manuscript/rnas/4lx5

>  <Rbt.Executable>
rbdock ($Id: //depot/dev/client3/rdock/2013.1/src/exe/rbdock.cxx#4 $)

>  <Rbt.Library>
libRbt.so (2013.1, Build901 2013/11/27)

>  <Rbt.Parameter_File>
/export/apps/rDock/src/rDock_2013.1_src/data/scripts/dock_solv.prm

>  <Rbt.Receptor>
prm/blind_docking_100.prm

>  <SCORE>
-14.0881

>  <SCORE.INTER>
-14.0881

>  <SCORE.INTER.CONST>
1

>  <SCORE.INTER.POLAR>
0

>  <SCORE.INTER.ROT>
0

>  <SCORE.INTER.SOLV>
18.889

>  <SCORE.INTER.VDW>
-19.2884

>  <SCORE.INTER.norm>
-1.17401

>  <SCORE.INTRA>
0

>  <SCORE.INTRA.DIHEDRAL>
0

>  <SCORE.INTRA.DIHEDRAL.0>
0

>  <SCORE.INTRA.POLAR>
0

>  <SCORE.INTRA.POLAR.0>
0

>  <SCORE.INTRA.REPUL>
0

>  <SCORE.INTRA.REPUL.0>
0

>  <SCORE.INTRA.SOLV>
0

>  <SCORE.INTRA.SOLV.lig_0>
-48.1583

>  <SCORE.INTRA.VDW>
0

>  <SCORE.INTRA.VDW.0>
0

>  <SCORE.INTRA.norm>
0

>  <SCORE.RESTR>
0

>  <SCORE.RESTR.CAVITY>
0

>  <SCORE.RESTR.norm>
0

>  <SCORE.SYSTEM>
0

>  <SCORE.SYSTEM.CONST>
0

>  <SCORE.SYSTEM.DIHEDRAL>
0

>  <SCORE.SYSTEM.SOLV>
0

>  <SCORE.SYSTEM.norm>
0

>  <SCORE.heavy>
12

>  <SCORE.norm>
-1.17401

>  <RMSD>
0.519

$$$$
ligand
 OpenBabel02271912143D
libRbt.so/2013.1/901 2013/11/27
 12 13  0  0  0  0  0  0  0  0999 V2000
    6.6882   17.5614    1.8105 C   0  0  0  0  0  0  0  0  0  0  0  0
    5.4151   16.3024    3.3035 C   0  0  0  0  0  0  0  0  0  0  0  0
    7.1630   17.7326    0.5800 N   0  0  0  0  0  0  0  0  0  0  0  0
    4.6641   15.2409    3.6170 N   0  0  0  0  0  0  0  0  0  0  0  0
    5.9239   16.4797    2.0770 N   0  0  0  0  0  0  0  0  0  0  0  0
    6.9537   18.4818    2.7640 N   0  0  0  0  0  0  0  0  0  0  0  0
    5.4588   17.9940    6.5905 N   0  0  0  0  0  0  0  0  0  0  0  0
    6.2520   19.1079    6.2751 C   0  0  0  0  0  0  0  0  0  0  0  0
    6.7668   19.2617    4.9667 N   0  0  0  0  0  0  0  0  0  0  0  0
    6.4708   18.3413    4.0237 C   0  0  0  0  0  0  0  0  0  0  0  0
    5.6723   17.2317    4.3189 C   0  0  0  0  0  0  0  0  0  0  0  0
    5.1560   17.0396    5.5991 C   0  0  0  0  0  0  0  0  0  0  0  0
  1  3  1  0  0  0  0
  1  5  1  0  0  0  0
  1  6  2  0  0  0  0
  2  5  2  0  0  0  0
  2 11  1  0  0  0  0
  2  4  1  0  0  0  0
  6 10  1  0  0  0  0
  7  8  2  0  0  0  0
  7 12  1  0  0  0  0
  8  9  1  0  0  0  0
  9 10  2  0  0  0  0
 10 11  1  0  0  0  0
 11 12  2  0  0  0  0
M  END
>  <CHROM.1>
6.05689112,17.56206523,3.79691435,-1.30744850,0.95930754,1.10831188

>  <Name>
ligand

>  <RI>
0

>  <Rbt.Current_Directory>
/home/itssahil/PROJECTS/Mol_Feturizer/Test_systems_manuscript/rnas/4lx5

>  <Rbt.Executable>
rbdock ($Id: //depot/dev/client3/rdock/2013.1/src/exe/rbdock.cxx#4 $)

>  <Rbt.Library>
libRbt.so (2013.1, Build901 2013/11/27)

>  <Rbt.Parameter_File>
/export/apps/rDock/src/rDock_2013.1_src/data/scripts/dock_solv.prm

>  <Rbt.Receptor>
prm/pocket_docking_5.prm

>  <SCORE>
-14.096

>  <SCORE.INTER>
-14.096

>  <SCORE.INTER.CONST>
1

>  <SCORE.INTER.POLAR>
0

>  <SCORE.INTER.ROT>
0

>  <SCORE.INTER.SOLV>
19.4354

>  <SCORE.INTER.VDW>
-19.4758

>  <SCORE.INTER.norm>
-1.17467

>  <SCORE.INTRA>
0

>  <SCORE.INTRA.DIHEDRAL>
0

>  <SCORE.INTRA.DIHEDRAL.0>
0

>  <SCORE.INTRA.POLAR>
0

>  <SCORE.INTRA.POLAR.0>
0

>  <SCORE.INTRA.REPUL>
0

>  <SCORE.INTRA.REPUL.0>
0

>  <SCORE.INTRA.SOLV>
0

>  <SCORE.INTRA.SOLV.lig_0>
-48.1583

>  <SCORE.INTRA.VDW>
0

>  <SCORE.INTRA.VDW.0>
0

>  <SCORE.INTRA.norm>
0

>  <SCORE.RESTR>
0

>  <SCORE.RESTR.CAVITY>
0

>  <SCORE.RESTR.norm>
0

>  <SCORE.SYSTEM>
0

>  <SCORE.SYSTEM.CONST>
0

>  <SCORE.SYSTEM.DIHEDRAL>
0

>  <SCORE.SYSTEM.SOLV>
0

>  <SCORE.SYSTEM.norm>
0

>  <SCORE.heavy>
12

>  <SCORE.norm>
-1.17467

>  <RMSD>
0.520

$$$$
ligand
 OpenBabel02271912143D
libRbt.so/2013.1/901 2013/11/27
 12 13  0  0  0  0  0  0  0  0999 V2000
    6.7226   17.6427    1.7991 C   0  0  0  0  0  0  0  0  0  0  0  0
    5.4383   16.3721    3.2725 C   0  0  0  0  0  0  0  0  0  0  0  0
    7.2064   17.8236    0.5735 N   0  0  0  0  0  0  0  0  0  0  0  0
    4.6849   15.3083    3.5720 N   0  0  0  0  0  0  0  0  0  0  0  0
    5.9561   16.5592    2.0512 N   0  0  0  0  0  0  0  0  0  0  0  0
    6.9812   18.5555    2.7618 N   0  0  0  0  0  0  0  0  0  0  0  0
    5.4580   18.0374    6.5731 N   0  0  0  0  0  0  0  0  0  0  0  0
    6.2537   19.1537    6.2725 C   0  0  0  0  0  0  0  0  0  0  0  0
    6.7782   19.3178    4.9692 N   0  0  0  0  0  0  0  0  0  0  0  0
    6.4890   18.4051    4.0168 C   0  0  0  0  0  0  0  0  0  0  0  0
    5.6881   17.2933    4.2972 C   0  0  0  0  0  0  0  0  0  0  0  0
    5.1624   17.0911    5.5720 C   0  0  0  0  0  0  0  0  0  0  0  0
  1  3  1  0  0  0  0
  1  5  1  0  0  0  0
  1  6  2  0  0  0  0
  2  5  2  0  0  0  0
  2 11  1  0  0  0  0
  2  4  1  0  0  0  0
  6 10  1  0  0  0  0
  7  8  2  0  0  0  0
  7 12  1  0  0  0  0
  8  9  1  0  0  0  0
  9 10  2  0  0  0  0
 10 11  1  0  0  0  0
 11 12  2  0  0  0  0
M  END
>  <CHROM.1>
6.07662985,17.62771047,3.78067494,-1.29613766,0.95585422,1.10704279

>  <Name>
ligand

>  <RI>
0

>  <Rbt.Current_Directory>
/home/itssahil/PROJECTS/Mol_Feturizer/Test_systems_manuscript/rnas/4lx5

>  <Rbt.Executable>
rbdock ($Id: //depot/dev/client3/rdock/2013.1/src/exe/rbdock.cxx#4 $)

>  <Rbt.Library>
libRbt.so (2013.1, Build901 2013/11/27)

>  <Rbt.Parameter_File>
/export/apps/rDock/src/rDock_2013.1_src/data/scripts/dock_solv.prm

>  <Rbt.Receptor>
prm/blind_docking_60.prm

>  <SCORE>
-14.0636

>  <SCORE.INTER>
-14.0636

>  <SCORE.INTER.CONST>
1

>  <SCORE.INTER.POLAR>
0

>  <SCORE.INTER.ROT>
0

>  <SCORE.INTER.SOLV>
19.5072

>  <SCORE.INTER.VDW>
-19.4781

>  <SCORE.INTER.norm>
-1.17197

>  <SCORE.INTRA>
0

>  <SCORE.INTRA.DIHEDRAL>
0

>  <SCORE.INTRA.DIHEDRAL.0>
0

>  <SCORE.INTRA.POLAR>
0

>  <SCORE.INTRA.POLAR.0>
0

>  <SCORE.INTRA.REPUL>
0

>  <SCORE.INTRA.REPUL.0>
0

>  <SCORE.INTRA.SOLV>
0

>  <SCORE.INTRA.SOLV.lig_0>
-48.1583

>  <SCORE.INTRA.VDW>
0

>  <SCORE.INTRA.VDW.0>
0

>  <SCORE.INTRA.norm>
0

>  <SCORE.RESTR>
0

>  <SCORE.RESTR.CAVITY>
0

>  <SCORE.RESTR.norm>
0

>  <SCORE.SYSTEM>
0

>  <SCORE.SYSTEM.CONST>
0

>  <SCORE.SYSTEM.DIHEDRAL>
0

>  <SCORE.SYSTEM.SOLV>
0

>  <SCORE.SYSTEM.norm>
0

>  <SCORE.heavy>
12

>  <SCORE.norm>
-1.17197

>  <RMSD>
0.525

$$$$
ligand
 OpenBabel02271912143D
libRbt.so/2013.1/901 2013/11/27
 12 13  0  0  0  0  0  0  0  0999 V2000
    6.6830   17.6067    1.7929 C   0  0  0  0  0  0  0  0  0  0  0  0
    5.4337   16.3378    3.2976 C   0  0  0  0  0  0  0  0  0  0  0  0
    7.1486   17.7792    0.5591 N   0  0  0  0  0  0  0  0  0  0  0  0
    4.6974   15.2685    3.6191 N   0  0  0  0  0  0  0  0  0  0  0  0
    5.9333   16.5169    2.0675 N   0  0  0  0  0  0  0  0  0  0  0  0
    6.9427   18.5337    2.7415 N   0  0  0  0  0  0  0  0  0  0  0  0
    5.4755   18.0417    6.5782 N   0  0  0  0  0  0  0  0  0  0  0  0
    6.2534   19.1640    6.2544 C   0  0  0  0  0  0  0  0  0  0  0  0
    6.7589   19.3193    4.9425 N   0  0  0  0  0  0  0  0  0  0  0  0
    6.4687   18.3920    4.0045 C   0  0  0  0  0  0  0  0  0  0  0  0
    5.6854   17.2739    4.3082 C   0  0  0  0  0  0  0  0  0  0  0  0
    5.1788   17.0802    5.5920 C   0  0  0  0  0  0  0  0  0  0  0  0
  1  3  1  0  0  0  0
  1  5  1  0  0  0  0
  1  6  2  0  0  0  0
  2  5  2  0  0  0  0
  2 11  1  0  0  0  0
  2  4  1  0  0  0  0
  6 10  1  0  0  0  0
  7  8  2  0  0  0  0
  7 12  1  0  0  0  0
  8  9  1  0  0  0  0
  9 10  2  0  0  0  0
 10 11  1  0  0  0  0
 11 12  2  0  0  0  0
M  END
>  <CHROM.1>
6.06296021,17.60695898,3.78280865,-1.30688899,0.97268102,1.10427303

>  <Name>
ligand

>  <RI>
0

>  <Rbt.Current_Directory>
/home/itssahil/PROJECTS/Mol_Feturizer/Test_systems_manuscript/rnas/4lx5

>  <Rbt.Executable>
rbdock ($Id: //depot/dev/client3/rdock/2013.1/src/exe/rbdock.cxx#4 $)

>  <Rbt.Library>
libRbt.so (2013.1, Build901 2013/11/27)

>  <Rbt.Parameter_File>
/export/apps/rDock/src/rDock_2013.1_src/data/scripts/dock_solv.prm

>  <Rbt.Receptor>
prm/pocket_docking_5.prm

>  <SCORE>
-14.0152

>  <SCORE.INTER>
-14.0152

>  <SCORE.INTER.CONST>
1

>  <SCORE.INTER.POLAR>
0

>  <SCORE.INTER.ROT>
0

>  <SCORE.INTER.SOLV>
19.5505

>  <SCORE.INTER.VDW>
-19.4603

>  <SCORE.INTER.norm>
-1.16793

>  <SCORE.INTRA>
0

>  <SCORE.INTRA.DIHEDRAL>
0

>  <SCORE.INTRA.DIHEDRAL.0>
0

>  <SCORE.INTRA.POLAR>
0

>  <SCORE.INTRA.POLAR.0>
0

>  <SCORE.INTRA.REPUL>
0

>  <SCORE.INTRA.REPUL.0>
0

>  <SCORE.INTRA.SOLV>
0

>  <SCORE.INTRA.SOLV.lig_0>
-48.1583

>  <SCORE.INTRA.VDW>
0

>  <SCORE.INTRA.VDW.0>
0

>  <SCORE.INTRA.norm>
0

>  <SCORE.RESTR>
0

>  <SCORE.RESTR.CAVITY>
0

>  <SCORE.RESTR.norm>
0

>  <SCORE.SYSTEM>
0

>  <SCORE.SYSTEM.CONST>
0

>  <SCORE.SYSTEM.DIHEDRAL>
0

>  <SCORE.SYSTEM.SOLV>
0

>  <SCORE.SYSTEM.norm>
0

>  <SCORE.heavy>
12

>  <SCORE.norm>
-1.16793

>  <RMSD>
0.530

$$$$
ligand
 OpenBabel02271912143D
libRbt.so/2013.1/901 2013/11/27
 12 13  0  0  0  0  0  0  0  0999 V2000
    6.6862   17.6096    1.7947 C   0  0  0  0  0  0  0  0  0  0  0  0
    5.4393   16.3399    3.3006 C   0  0  0  0  0  0  0  0  0  0  0  0
    7.1492   17.7832    0.5601 N   0  0  0  0  0  0  0  0  0  0  0  0
    4.7028   15.2708    3.6225 N   0  0  0  0  0  0  0  0  0  0  0  0
    5.9362   16.5201    2.0697 N   0  0  0  0  0  0  0  0  0  0  0  0
    6.9489   18.5352    2.7439 N   0  0  0  0  0  0  0  0  0  0  0  0
    5.4900   18.0397    6.5833 N   0  0  0  0  0  0  0  0  0  0  0  0
    6.2681   19.1617    6.2591 C   0  0  0  0  0  0  0  0  0  0  0  0
    6.7708   19.3182    4.9463 N   0  0  0  0  0  0  0  0  0  0  0  0
    6.4776   18.3923    4.0078 C   0  0  0  0  0  0  0  0  0  0  0  0
    5.6940   17.2745    4.3119 C   0  0  0  0  0  0  0  0  0  0  0  0
    5.1901   17.0796    5.5965 C   0  0  0  0  0  0  0  0  0  0  0  0
  1  3  1  0  0  0  0
  1  5  1  0  0  0  0
  1  6  2  0  0  0  0
  2  5  2  0  0  0  0
  2 11  1  0  0  0  0
  2  4  1  0  0  0  0
  6 10  1  0  0  0  0
  7  8  2  0  0  0  0
  7 12  1  0  0  0  0
  8  9  1  0  0  0  0
  9 10  2  0  0  0  0
 10 11  1  0  0  0  0
 11 12  2  0  0  0  0
M  END
>  <CHROM.1>
6.07071773,17.60789057,3.78602593,-1.31115441,0.97291691,1.10903841

>  <Name>
ligand

>  <RI>
0

>  <Rbt.Current_Directory>
/home/itssahil/PROJECTS/Mol_Feturizer/Test_systems_manuscript/rnas/4lx5

>  <Rbt.Executable>
rbdock ($Id: //depot/dev/client3/rdock/2013.1/src/exe/rbdock.cxx#4 $)

>  <Rbt.Library>
libRbt.so (2013.1, Build901 2013/11/27)

>  <Rbt.Parameter_File>
/export/apps/rDock/src/rDock_2013.1_src/data/scripts/dock_solv.prm

>  <Rbt.Receptor>
prm/pocket_docking_4.prm

>  <SCORE>
-14.053

>  <SCORE.INTER>
-14.053

>  <SCORE.INTER.CONST>
1

>  <SCORE.INTER.POLAR>
0

>  <SCORE.INTER.ROT>
0

>  <SCORE.INTER.SOLV>
19.5692

>  <SCORE.INTER.VDW>
-19.4917

>  <SCORE.INTER.norm>
-1.17108

>  <SCORE.INTRA>
0

>  <SCORE.INTRA.DIHEDRAL>
0

>  <SCORE.INTRA.DIHEDRAL.0>
0

>  <SCORE.INTRA.POLAR>
0

>  <SCORE.INTRA.POLAR.0>
0

>  <SCORE.INTRA.REPUL>
0

>  <SCORE.INTRA.REPUL.0>
0

>  <SCORE.INTRA.SOLV>
0

>  <SCORE.INTRA.SOLV.lig_0>
-48.1583

>  <SCORE.INTRA.VDW>
0

>  <SCORE.INTRA.VDW.0>
0

>  <SCORE.INTRA.norm>
0

>  <SCORE.RESTR>
0

>  <SCORE.RESTR.CAVITY>
0

>  <SCORE.RESTR.norm>
0

>  <SCORE.SYSTEM>
0

>  <SCORE.SYSTEM.CONST>
0

>  <SCORE.SYSTEM.DIHEDRAL>
0

>  <SCORE.SYSTEM.SOLV>
0

>  <SCORE.SYSTEM.norm>
0

>  <SCORE.heavy>
12

>  <SCORE.norm>
-1.17108

>  <RMSD>
0.533

$$$$
ligand
 OpenBabel02271912143D
libRbt.so/2013.1/901 2013/11/27
 12 13  0  0  0  0  0  0  0  0999 V2000
    6.7000   17.5779    1.7348 C   0  0  0  0  0  0  0  0  0  0  0  0
    5.4448   16.3896    3.2991 C   0  0  0  0  0  0  0  0  0  0  0  0
    7.1470   17.7006    0.4882 N   0  0  0  0  0  0  0  0  0  0  0  0
    4.6856   15.3512    3.6659 N   0  0  0  0  0  0  0  0  0  0  0  0
    5.9260   16.5180    2.0555 N   0  0  0  0  0  0  0  0  0  0  0  0
    7.0027   18.5250    2.6502 N   0  0  0  0  0  0  0  0  0  0  0  0
    5.5945   18.1882    6.5256 N   0  0  0  0  0  0  0  0  0  0  0  0
    6.3967   19.2782    6.1542 C   0  0  0  0  0  0  0  0  0  0  0  0
    6.8817   19.3803    4.8294 N   0  0  0  0  0  0  0  0  0  0  0  0
    6.5487   18.4341    3.9252 C   0  0  0  0  0  0  0  0  0  0  0  0
    5.7408   17.3478    4.2764 C   0  0  0  0  0  0  0  0  0  0  0  0
    5.2532   17.2065    5.5743 C   0  0  0  0  0  0  0  0  0  0  0  0
  1  3  1  0  0  0  0
  1  5  1  0  0  0  0
  1  6  2  0  0  0  0
  2  5  2  0  0  0  0
  2 11  1  0  0  0  0
  2  4  1  0  0  0  0
  6 10  1  0  0  0  0
  7  8  2  0  0  0  0
  7 12  1  0  0  0  0
  8  9  1  0  0  0  0
  9 10  2  0  0  0  0
 10 11  1  0  0  0  0
 11 12  2  0  0  0  0
M  END
>  <CHROM.1>
6.11749873,17.65446802,3.73453649,-1.35721019,0.95600730,1.11568957

>  <Name>
ligand

>  <RI>
0

>  <Rbt.Current_Directory>
/home/itssahil/PROJECTS/Mol_Feturizer/Test_systems_manuscript/rnas/4lx5

>  <Rbt.Executable>
rbdock ($Id: //depot/dev/client3/rdock/2013.1/src/exe/rbdock.cxx#4 $)

>  <Rbt.Library>
libRbt.so (2013.1, Build901 2013/11/27)

>  <Rbt.Parameter_File>
/export/apps/rDock/src/rDock_2013.1_src/data/scripts/dock_solv.prm

>  <Rbt.Receptor>
prm/pocket_docking_3.prm

>  <SCORE>
-14.0197

>  <SCORE.INTER>
-14.0197

>  <SCORE.INTER.CONST>
1

>  <SCORE.INTER.POLAR>
0

>  <SCORE.INTER.ROT>
0

>  <SCORE.INTER.SOLV>
19.3131

>  <SCORE.INTER.VDW>
-19.3842

>  <SCORE.INTER.norm>
-1.16831

>  <SCORE.INTRA>
0

>  <SCORE.INTRA.DIHEDRAL>
0

>  <SCORE.INTRA.DIHEDRAL.0>
0

>  <SCORE.INTRA.POLAR>
0

>  <SCORE.INTRA.POLAR.0>
0

>  <SCORE.INTRA.REPUL>
0

>  <SCORE.INTRA.REPUL.0>
0

>  <SCORE.INTRA.SOLV>
0

>  <SCORE.INTRA.SOLV.lig_0>
-48.1583

>  <SCORE.INTRA.VDW>
0

>  <SCORE.INTRA.VDW.0>
0

>  <SCORE.INTRA.norm>
0

>  <SCORE.RESTR>
0

>  <SCORE.RESTR.CAVITY>
0

>  <SCORE.RESTR.norm>
0

>  <SCORE.SYSTEM>
0

>  <SCORE.SYSTEM.CONST>
0

>  <SCORE.SYSTEM.DIHEDRAL>
0

>  <SCORE.SYSTEM.SOLV>
0

>  <SCORE.SYSTEM.norm>
0

>  <SCORE.heavy>
12

>  <SCORE.norm>
-1.16831

>  <RMSD>
0.548

$$$$
ligand
 OpenBabel02271912143D
libRbt.so/2013.1/901 2013/11/27
 12 13  0  0  0  0  0  0  0  0999 V2000
    6.6099   17.6109    1.7332 C   0  0  0  0  0  0  0  0  0  0  0  0
    5.2877   16.4629    3.2723 C   0  0  0  0  0  0  0  0  0  0  0  0
    7.0546   17.7420    0.4866 N   0  0  0  0  0  0  0  0  0  0  0  0
    4.4613   15.4683    3.6141 N   0  0  0  0  0  0  0  0  0  0  0  0
    5.7669   16.5973    2.0285 N   0  0  0  0  0  0  0  0  0  0  0  0
    6.9846   18.5053    2.6746 N   0  0  0  0  0  0  0  0  0  0  0  0
    5.5869   18.1436    6.5515 N   0  0  0  0  0  0  0  0  0  0  0  0
    6.4597   19.1870    6.2062 C   0  0  0  0  0  0  0  0  0  0  0  0
    6.9401   19.2974    4.8804 N   0  0  0  0  0  0  0  0  0  0  0  0
    6.5353   18.4056    3.9506 C   0  0  0  0  0  0  0  0  0  0  0  0
    5.6570   17.3670    4.2759 C   0  0  0  0  0  0  0  0  0  0  0  0
    5.1709   17.2185    5.5736 C   0  0  0  0  0  0  0  0  0  0  0  0
  1  3  1  0  0  0  0
  1  5  1  0  0  0  0
  1  6  2  0  0  0  0
  2  5  2  0  0  0  0
  2 11  1  0  0  0  0
  2  4  1  0  0  0  0
  6 10  1  0  0  0  0
  7  8  2  0  0  0  0
  7 12  1  0  0  0  0
  8  9  1  0  0  0  0
  9 10  2  0  0  0  0
 10 11  1  0  0  0  0
 11 12  2  0  0  0  0
M  END
>  <CHROM.1>
6.04975942,17.66397031,3.74007718,-1.41723752,0.89631015,1.19517276

>  <Name>
ligand

>  <RI>
0

>  <Rbt.Current_Directory>
/home/itssahil/PROJECTS/Mol_Feturizer/Test_systems_manuscript/rnas/4lx5

>  <Rbt.Executable>
rbdock ($Id: //depot/dev/client3/rdock/2013.1/src/exe/rbdock.cxx#4 $)

>  <Rbt.Library>
libRbt.so (2013.1, Build901 2013/11/27)

>  <Rbt.Parameter_File>
/export/apps/rDock/src/rDock_2013.1_src/data/scripts/dock_solv.prm

>  <Rbt.Receptor>
prm/blind_docking_40.prm

>  <SCORE>
-14.0239

>  <SCORE.INTER>
-14.0239

>  <SCORE.INTER.CONST>
1

>  <SCORE.INTER.POLAR>
0

>  <SCORE.INTER.ROT>
0

>  <SCORE.INTER.SOLV>
18.2539

>  <SCORE.INTER.VDW>
-19.0339

>  <SCORE.INTER.norm>
-1.16866

>  <SCORE.INTRA>
0

>  <SCORE.INTRA.DIHEDRAL>
0

>  <SCORE.INTRA.DIHEDRAL.0>
0

>  <SCORE.INTRA.POLAR>
0

>  <SCORE.INTRA.POLAR.0>
0

>  <SCORE.INTRA.REPUL>
0

>  <SCORE.INTRA.REPUL.0>
0

>  <SCORE.INTRA.SOLV>
0

>  <SCORE.INTRA.SOLV.lig_0>
-48.1583

>  <SCORE.INTRA.VDW>
0

>  <SCORE.INTRA.VDW.0>
0

>  <SCORE.INTRA.norm>
0

>  <SCORE.RESTR>
0

>  <SCORE.RESTR.CAVITY>
0

>  <SCORE.RESTR.norm>
0

>  <SCORE.SYSTEM>
0

>  <SCORE.SYSTEM.CONST>
0

>  <SCORE.SYSTEM.DIHEDRAL>
0

>  <SCORE.SYSTEM.SOLV>
0

>  <SCORE.SYSTEM.norm>
0

>  <SCORE.heavy>
12

>  <SCORE.norm>
-1.16866

>  <RMSD>
0.549

$$$$
ligand
 OpenBabel02271912143D
libRbt.so/2013.1/901 2013/11/27
 12 13  0  0  0  0  0  0  0  0999 V2000
    6.6252   17.5495    1.8109 C   0  0  0  0  0  0  0  0  0  0  0  0
    5.3702   16.3258    3.3479 C   0  0  0  0  0  0  0  0  0  0  0  0
    7.0777   17.6969    0.5689 N   0  0  0  0  0  0  0  0  0  0  0  0
    4.6162   15.2762    3.6926 N   0  0  0  0  0  0  0  0  0  0  0  0
    5.8568   16.4791    2.1091 N   0  0  0  0  0  0  0  0  0  0  0  0
    6.9169   18.4825    2.7442 N   0  0  0  0  0  0  0  0  0  0  0  0
    5.4916   18.0690    6.6058 N   0  0  0  0  0  0  0  0  0  0  0  0
    6.2883   19.1706    6.2576 C   0  0  0  0  0  0  0  0  0  0  0  0
    6.7792   19.2990    4.9373 N   0  0  0  0  0  0  0  0  0  0  0  0
    6.4571   18.3665    4.0150 C   0  0  0  0  0  0  0  0  0  0  0  0
    5.6548   17.2689    4.3431 C   0  0  0  0  0  0  0  0  0  0  0  0
    5.1617   17.1018    5.6359 C   0  0  0  0  0  0  0  0  0  0  0  0
  1  3  1  0  0  0  0
  1  5  1  0  0  0  0
  1  6  2  0  0  0  0
  2  5  2  0  0  0  0
  2 11  1  0  0  0  0
  2  4  1  0  0  0  0
  6 10  1  0  0  0  0
  7  8  2  0  0  0  0
  7 12  1  0  0  0  0
  8  9  1  0  0  0  0
  9 10  2  0  0  0  0
 10 11  1  0  0  0  0
 11 12  2  0  0  0  0
M  END
>  <CHROM.1>
6.03218876,17.58742064,3.80863658,-1.34416852,0.95982202,1.12241104

>  <Name>
ligand

>  <RI>
0

>  <Rbt.Current_Directory>
/home/itssahil/PROJECTS/Mol_Feturizer/Test_systems_manuscript/rnas/4lx5

>  <Rbt.Executable>
rbdock ($Id: //depot/dev/client3/rdock/2013.1/src/exe/rbdock.cxx#4 $)

>  <Rbt.Library>
libRbt.so (2013.1, Build901 2013/11/27)

>  <Rbt.Parameter_File>
/export/apps/rDock/src/rDock_2013.1_src/data/scripts/dock_solv.prm

>  <Rbt.Receptor>
prm/blind_docking_60.prm

>  <SCORE>
-14.0469

>  <SCORE.INTER>
-14.0469

>  <SCORE.INTER.CONST>
1

>  <SCORE.INTER.POLAR>
0

>  <SCORE.INTER.ROT>
0

>  <SCORE.INTER.SOLV>
19.1714

>  <SCORE.INTER.VDW>
-19.3551

>  <SCORE.INTER.norm>
-1.17057

>  <SCORE.INTRA>
0

>  <SCORE.INTRA.DIHEDRAL>
0

>  <SCORE.INTRA.DIHEDRAL.0>
0

>  <SCORE.INTRA.POLAR>
0

>  <SCORE.INTRA.POLAR.0>
0

>  <SCORE.INTRA.REPUL>
0

>  <SCORE.INTRA.REPUL.0>
0

>  <SCORE.INTRA.SOLV>
0

>  <SCORE.INTRA.SOLV.lig_0>
-48.1583

>  <SCORE.INTRA.VDW>
0

>  <SCORE.INTRA.VDW.0>
0

>  <SCORE.INTRA.norm>
0

>  <SCORE.RESTR>
0

>  <SCORE.RESTR.CAVITY>
0

>  <SCORE.RESTR.norm>
0

>  <SCORE.SYSTEM>
0

>  <SCORE.SYSTEM.CONST>
0

>  <SCORE.SYSTEM.DIHEDRAL>
0

>  <SCORE.SYSTEM.SOLV>
0

>  <SCORE.SYSTEM.norm>
0

>  <SCORE.heavy>
12

>  <SCORE.norm>
-1.17057

>  <RMSD>
0.560

$$$$
ligand
 OpenBabel02271912143D
libRbt.so/2013.1/901 2013/11/27
 12 13  0  0  0  0  0  0  0  0999 V2000
    6.6655   17.5898    1.7519 C   0  0  0  0  0  0  0  0  0  0  0  0
    5.3167   16.4711    3.2895 C   0  0  0  0  0  0  0  0  0  0  0  0
    7.1211   17.7057    0.5078 N   0  0  0  0  0  0  0  0  0  0  0  0
    4.4744   15.4903    3.6324 N   0  0  0  0  0  0  0  0  0  0  0  0
    5.8067   16.5899    2.0483 N   0  0  0  0  0  0  0  0  0  0  0  0
    7.0455   18.4859    2.6896 N   0  0  0  0  0  0  0  0  0  0  0  0
    5.6147   18.1716    6.5586 N   0  0  0  0  0  0  0  0  0  0  0  0
    6.5041   19.2005    6.2122 C   0  0  0  0  0  0  0  0  0  0  0  0
    6.9957   19.2947    4.8893 N   0  0  0  0  0  0  0  0  0  0  0  0
    6.5856   18.4016    3.9629 C   0  0  0  0  0  0  0  0  0  0  0  0
    5.6909   17.3774    4.2892 C   0  0  0  0  0  0  0  0  0  0  0  0
    5.1933   17.2451    5.5843 C   0  0  0  0  0  0  0  0  0  0  0  0
  1  3  1  0  0  0  0
  1  5  1  0  0  0  0
  1  6  2  0  0  0  0
  2  5  2  0  0  0  0
  2 11  1  0  0  0  0
  2  4  1  0  0  0  0
  6 10  1  0  0  0  0
  7  8  2  0  0  0  0
  7 12  1  0  0  0  0
  8  9  1  0  0  0  0
  9 10  2  0  0  0  0
 10 11  1  0  0  0  0
 11 12  2  0  0  0  0
M  END
>  <CHROM.1>
6.09155783,17.66513626,3.75420974,-1.41437957,0.88097728,1.18566381

>  <Name>
ligand

>  <RI>
0

>  <Rbt.Current_Directory>
/home/itssahil/PROJECTS/Mol_Feturizer/Test_systems_manuscript/rnas/4lx5

>  <Rbt.Executable>
rbdock ($Id: //depot/dev/client3/rdock/2013.1/src/exe/rbdock.cxx#4 $)

>  <Rbt.Library>
libRbt.so (2013.1, Build901 2013/11/27)

>  <Rbt.Parameter_File>
/export/apps/rDock/src/rDock_2013.1_src/data/scripts/dock_solv.prm

>  <Rbt.Receptor>
prm/blind_docking_40.prm

>  <SCORE>
-14.0046

>  <SCORE.INTER>
-14.0046

>  <SCORE.INTER.CONST>
1

>  <SCORE.INTER.POLAR>
0

>  <SCORE.INTER.ROT>
0

>  <SCORE.INTER.SOLV>
18.2783

>  <SCORE.INTER.VDW>
-19.0292

>  <SCORE.INTER.norm>
-1.16705

>  <SCORE.INTRA>
0

>  <SCORE.INTRA.DIHEDRAL>
0

>  <SCORE.INTRA.DIHEDRAL.0>
0

>  <SCORE.INTRA.POLAR>
0

>  <SCORE.INTRA.POLAR.0>
0

>  <SCORE.INTRA.REPUL>
0

>  <SCORE.INTRA.REPUL.0>
0

>  <SCORE.INTRA.SOLV>
0

>  <SCORE.INTRA.SOLV.lig_0>
-48.1583

>  <SCORE.INTRA.VDW>
0

>  <SCORE.INTRA.VDW.0>
0

>  <SCORE.INTRA.norm>
0

>  <SCORE.RESTR>
0

>  <SCORE.RESTR.CAVITY>
0

>  <SCORE.RESTR.norm>
0

>  <SCORE.SYSTEM>
0

>  <SCORE.SYSTEM.CONST>
0

>  <SCORE.SYSTEM.DIHEDRAL>
0

>  <SCORE.SYSTEM.SOLV>
0

>  <SCORE.SYSTEM.norm>
0

>  <SCORE.heavy>
12

>  <SCORE.norm>
-1.16705

>  <RMSD>
0.562

$$$$
ligand
 OpenBabel02271912143D
libRbt.so/2013.1/901 2013/11/27
 12 13  0  0  0  0  0  0  0  0999 V2000
    6.5886   17.5555    1.7186 C   0  0  0  0  0  0  0  0  0  0  0  0
    5.2853   16.4411    3.2981 C   0  0  0  0  0  0  0  0  0  0  0  0
    7.0175   17.6600    0.4640 N   0  0  0  0  0  0  0  0  0  0  0  0
    4.4628   15.4546    3.6711 N   0  0  0  0  0  0  0  0  0  0  0  0
    5.7488   16.5490    2.0458 N   0  0  0  0  0  0  0  0  0  0  0  0
    6.9758   18.4691    2.6363 N   0  0  0  0  0  0  0  0  0  0  0  0
    5.6271   18.1898    6.5373 N   0  0  0  0  0  0  0  0  0  0  0  0
    6.4961   19.2250    6.1592 C   0  0  0  0  0  0  0  0  0  0  0  0
    6.9598   19.3072    4.8255 N   0  0  0  0  0  0  0  0  0  0  0  0
    6.5427   18.3965    3.9196 C   0  0  0  0  0  0  0  0  0  0  0  0
    5.6679   17.3656    4.2778 C   0  0  0  0  0  0  0  0  0  0  0  0
    5.1982   17.2448    5.5843 C   0  0  0  0  0  0  0  0  0  0  0  0
  1  3  1  0  0  0  0
  1  5  1  0  0  0  0
  1  6  2  0  0  0  0
  2  5  2  0  0  0  0
  2 11  1  0  0  0  0
  2  4  1  0  0  0  0
  6 10  1  0  0  0  0
  7  8  2  0  0  0  0
  7 12  1  0  0  0  0
  8  9  1  0  0  0  0
  9 10  2  0  0  0  0
 10 11  1  0  0  0  0
 11 12  2  0  0  0  0
M  END
>  <CHROM.1>
6.05403312,17.65102977,3.73091777,-1.43658269,0.90031191,1.18935992

>  <Name>
ligand

>  <RI>
0

>  <Rbt.Current_Directory>
/home/itssahil/PROJECTS/Mol_Feturizer/Test_systems_manuscript/rnas/4lx5

>  <Rbt.Executable>
rbdock ($Id: //depot/dev/client3/rdock/2013.1/src/exe/rbdock.cxx#4 $)

>  <Rbt.Library>
libRbt.so (2013.1, Build901 2013/11/27)

>  <Rbt.Parameter_File>
/export/apps/rDock/src/rDock_2013.1_src/data/scripts/dock_solv.prm

>  <Rbt.Receptor>
prm/pocket_docking_4.prm

>  <SCORE>
-14.0345

>  <SCORE.INTER>
-14.0345

>  <SCORE.INTER.CONST>
1

>  <SCORE.INTER.POLAR>
0

>  <SCORE.INTER.ROT>
0

>  <SCORE.INTER.SOLV>
18.1984

>  <SCORE.INTER.VDW>
-19.0225

>  <SCORE.INTER.norm>
-1.16954

>  <SCORE.INTRA>
0

>  <SCORE.INTRA.DIHEDRAL>
0

>  <SCORE.INTRA.DIHEDRAL.0>
0

>  <SCORE.INTRA.POLAR>
0

>  <SCORE.INTRA.POLAR.0>
0

>  <SCORE.INTRA.REPUL>
0

>  <SCORE.INTRA.REPUL.0>
0

>  <SCORE.INTRA.SOLV>
0

>  <SCORE.INTRA.SOLV.lig_0>
-48.1583

>  <SCORE.INTRA.VDW>
0

>  <SCORE.INTRA.VDW.0>
0

>  <SCORE.INTRA.norm>
0

>  <SCORE.RESTR>
0

>  <SCORE.RESTR.CAVITY>
0

>  <SCORE.RESTR.norm>
0

>  <SCORE.SYSTEM>
0

>  <SCORE.SYSTEM.CONST>
0

>  <SCORE.SYSTEM.DIHEDRAL>
0

>  <SCORE.SYSTEM.SOLV>
0

>  <SCORE.SYSTEM.norm>
0

>  <SCORE.heavy>
12

>  <SCORE.norm>
-1.16954

>  <RMSD>
0.562

$$$$
ligand
 OpenBabel02271912143D
libRbt.so/2013.1/901 2013/11/27
 12 13  0  0  0  0  0  0  0  0999 V2000
    6.6222   17.5954    1.7355 C   0  0  0  0  0  0  0  0  0  0  0  0
    5.3127   16.4574    3.2927 C   0  0  0  0  0  0  0  0  0  0  0  0
    7.0646   17.7123    0.4867 N   0  0  0  0  0  0  0  0  0  0  0  0
    4.4966   15.4598    3.6501 N   0  0  0  0  0  0  0  0  0  0  0  0
    5.7896   16.5780    2.0467 N   0  0  0  0  0  0  0  0  0  0  0  0
    6.9886   18.5076    2.6631 N   0  0  0  0  0  0  0  0  0  0  0  0
    5.5973   18.1899    6.5462 N   0  0  0  0  0  0  0  0  0  0  0  0
    6.4593   19.2366    6.1846 C   0  0  0  0  0  0  0  0  0  0  0  0
    6.9377   19.3321    4.8569 N   0  0  0  0  0  0  0  0  0  0  0  0
    6.5412   18.4224    3.9408 C   0  0  0  0  0  0  0  0  0  0  0  0
    5.6736   17.3800    4.2824 C   0  0  0  0  0  0  0  0  0  0  0  0
    5.1899   17.2461    5.5826 C   0  0  0  0  0  0  0  0  0  0  0  0
  1  3  1  0  0  0  0
  1  5  1  0  0  0  0
  1  6  2  0  0  0  0
  2  5  2  0  0  0  0
  2 11  1  0  0  0  0
  2  4  1  0  0  0  0
  6 10  1  0  0  0  0
  7  8  2  0  0  0  0
  7 12  1  0  0  0  0
  8  9  1  0  0  0  0
  9 10  2  0  0  0  0
 10 11  1  0  0  0  0
 11 12  2  0  0  0  0
M  END
>  <CHROM.1>
6.06297765,17.67288360,3.74188881,-1.41233106,0.90590358,1.17636748

>  <Name>
ligand

>  <RI>
0

>  <Rbt.Current_Directory>
/home/itssahil/PROJECTS/Mol_Feturizer/Test_systems_manuscript/rnas/4lx5

>  <Rbt.Executable>
rbdock ($Id: //depot/dev/client3/rdock/2013.1/src/exe/rbdock.cxx#4 $)

>  <Rbt.Library>
libRbt.so (2013.1, Build901 2013/11/27)

>  <Rbt.Parameter_File>
/export/apps/rDock/src/rDock_2013.1_src/data/scripts/dock_solv.prm

>  <Rbt.Receptor>
prm/pocket_docking_8.prm

>  <SCORE>
-14.0305

>  <SCORE.INTER>
-14.0305

>  <SCORE.INTER.CONST>
1

>  <SCORE.INTER.POLAR>
0

>  <SCORE.INTER.ROT>
0

>  <SCORE.INTER.SOLV>
18.4013

>  <SCORE.INTER.VDW>
-19.0874

>  <SCORE.INTER.norm>
-1.16921

>  <SCORE.INTRA>
0

>  <SCORE.INTRA.DIHEDRAL>
0

>  <SCORE.INTRA.DIHEDRAL.0>
0

>  <SCORE.INTRA.POLAR>
0

>  <SCORE.INTRA.POLAR.0>
0

>  <SCORE.INTRA.REPUL>
0

>  <SCORE.INTRA.REPUL.0>
0

>  <SCORE.INTRA.SOLV>
0

>  <SCORE.INTRA.SOLV.lig_0>
-48.1583

>  <SCORE.INTRA.VDW>
0

>  <SCORE.INTRA.VDW.0>
0

>  <SCORE.INTRA.norm>
0

>  <SCORE.RESTR>
0

>  <SCORE.RESTR.CAVITY>
0

>  <SCORE.RESTR.norm>
0

>  <SCORE.SYSTEM>
0

>  <SCORE.SYSTEM.CONST>
0

>  <SCORE.SYSTEM.DIHEDRAL>
0

>  <SCORE.SYSTEM.SOLV>
0

>  <SCORE.SYSTEM.norm>
0

>  <SCORE.heavy>
12

>  <SCORE.norm>
-1.16921

>  <RMSD>
0.563

$$$$
ligand
 OpenBabel02271912143D
libRbt.so/2013.1/901 2013/11/27
 12 13  0  0  0  0  0  0  0  0999 V2000
    6.6267   17.6172    1.7256 C   0  0  0  0  0  0  0  0  0  0  0  0
    5.3008   16.4889    3.2761 C   0  0  0  0  0  0  0  0  0  0  0  0
    7.0663   17.7387    0.4763 N   0  0  0  0  0  0  0  0  0  0  0  0
    4.4663   15.5040    3.6263 N   0  0  0  0  0  0  0  0  0  0  0  0
    5.7750   16.6134    2.0294 N   0  0  0  0  0  0  0  0  0  0  0  0
    7.0151   18.5116    2.6614 N   0  0  0  0  0  0  0  0  0  0  0  0
    5.6336   18.1799    6.5468 N   0  0  0  0  0  0  0  0  0  0  0  0
    6.5150   19.2130    6.1928 C   0  0  0  0  0  0  0  0  0  0  0  0
    6.9898   19.3132    4.8642 N   0  0  0  0  0  0  0  0  0  0  0  0
    6.5714   18.4216    3.9401 C   0  0  0  0  0  0  0  0  0  0  0  0
    5.6843   17.3933    4.2741 C   0  0  0  0  0  0  0  0  0  0  0  0
    5.2034   17.2550    5.5748 C   0  0  0  0  0  0  0  0  0  0  0  0
  1  3  1  0  0  0  0
  1  5  1  0  0  0  0
  1  6  2  0  0  0  0
  2  5  2  0  0  0  0
  2 11  1  0  0  0  0
  2  4  1  0  0  0  0
  6 10  1  0  0  0  0
  7  8  2  0  0  0  0
  7 12  1  0  0  0  0
  8  9  1  0  0  0  0
  9 10  2  0  0  0  0
 10 11  1  0  0  0  0
 11 12  2  0  0  0  0
M  END
>  <CHROM.1>
6.07732963,17.68409919,3.73510435,-1.43057840,0.88878537,1.20143976

>  <Name>
ligand

>  <RI>
0

>  <Rbt.Current_Directory>
/home/itssahil/PROJECTS/Mol_Feturizer/Test_systems_manuscript/rnas/4lx5

>  <Rbt.Executable>
rbdock ($Id: //depot/dev/client3/rdock/2013.1/src/exe/rbdock.cxx#4 $)

>  <Rbt.Library>
libRbt.so (2013.1, Build901 2013/11/27)

>  <Rbt.Parameter_File>
/export/apps/rDock/src/rDock_2013.1_src/data/scripts/dock_solv.prm

>  <Rbt.Receptor>
prm/pocket_docking_6.prm

>  <SCORE>
-14.0329

>  <SCORE.INTER>
-14.0329

>  <SCORE.INTER.CONST>
1

>  <SCORE.INTER.POLAR>
0

>  <SCORE.INTER.ROT>
0

>  <SCORE.INTER.SOLV>
18.2096

>  <SCORE.INTER.VDW>
-19.0251

>  <SCORE.INTER.norm>
-1.16941

>  <SCORE.INTRA>
0

>  <SCORE.INTRA.DIHEDRAL>
0

>  <SCORE.INTRA.DIHEDRAL.0>
0

>  <SCORE.INTRA.POLAR>
0

>  <SCORE.INTRA.POLAR.0>
0

>  <SCORE.INTRA.REPUL>
0

>  <SCORE.INTRA.REPUL.0>
0

>  <SCORE.INTRA.SOLV>
0

>  <SCORE.INTRA.SOLV.lig_0>
-48.1583

>  <SCORE.INTRA.VDW>
0

>  <SCORE.INTRA.VDW.0>
0

>  <SCORE.INTRA.norm>
0

>  <SCORE.RESTR>
0

>  <SCORE.RESTR.CAVITY>
0

>  <SCORE.RESTR.norm>
0

>  <SCORE.SYSTEM>
0

>  <SCORE.SYSTEM.CONST>
0

>  <SCORE.SYSTEM.DIHEDRAL>
0

>  <SCORE.SYSTEM.SOLV>
0

>  <SCORE.SYSTEM.norm>
0

>  <SCORE.heavy>
12

>  <SCORE.norm>
-1.16941

>  <RMSD>
0.564

$$$$
ligand
 OpenBabel02271912143D
libRbt.so/2013.1/901 2013/11/27
 12 13  0  0  0  0  0  0  0  0999 V2000
    6.5864   17.5384    1.7251 C   0  0  0  0  0  0  0  0  0  0  0  0
    5.2715   16.4384    3.3049 C   0  0  0  0  0  0  0  0  0  0  0  0
    7.0155   17.6388    0.4702 N   0  0  0  0  0  0  0  0  0  0  0  0
    4.4377   15.4613    3.6780 N   0  0  0  0  0  0  0  0  0  0  0  0
    5.7352   16.5417    2.0523 N   0  0  0  0  0  0  0  0  0  0  0  0
    6.9850   18.4469    2.6430 N   0  0  0  0  0  0  0  0  0  0  0  0
    5.6363   18.1809    6.5449 N   0  0  0  0  0  0  0  0  0  0  0  0
    6.5170   19.2060    6.1668 C   0  0  0  0  0  0  0  0  0  0  0  0
    6.9806   19.2837    4.8327 N   0  0  0  0  0  0  0  0  0  0  0  0
    6.5521   18.3785    3.9267 C   0  0  0  0  0  0  0  0  0  0  0  0
    5.6656   17.3577    4.2848 C   0  0  0  0  0  0  0  0  0  0  0  0
    5.1956   17.2416    5.5917 C   0  0  0  0  0  0  0  0  0  0  0  0
  1  3  1  0  0  0  0
  1  5  1  0  0  0  0
  1  6  2  0  0  0  0
  2  5  2  0  0  0  0
  2 11  1  0  0  0  0
  2  4  1  0  0  0  0
  6 10  1  0  0  0  0
  7  8  2  0  0  0  0
  7 12  1  0  0  0  0
  8  9  1  0  0  0  0
  9 10  2  0  0  0  0
 10 11  1  0  0  0  0
 11 12  2  0  0  0  0
M  END
>  <CHROM.1>
6.05461350,17.63893830,3.73785807,-1.44468898,0.88972830,1.19632119

>  <Name>
ligand

>  <RI>
0

>  <Rbt.Current_Directory>
/home/itssahil/PROJECTS/Mol_Feturizer/Test_systems_manuscript/rnas/4lx5

>  <Rbt.Executable>
rbdock ($Id: //depot/dev/client3/rdock/2013.1/src/exe/rbdock.cxx#4 $)

>  <Rbt.Library>
libRbt.so (2013.1, Build901 2013/11/27)

>  <Rbt.Parameter_File>
/export/apps/rDock/src/rDock_2013.1_src/data/scripts/dock_solv.prm

>  <Rbt.Receptor>
prm/pocket_docking_6.prm

>  <SCORE>
-14.0584

>  <SCORE.INTER>
-14.0584

>  <SCORE.INTER.CONST>
1

>  <SCORE.INTER.POLAR>
0

>  <SCORE.INTER.ROT>
0

>  <SCORE.INTER.SOLV>
18.0821

>  <SCORE.INTER.VDW>
-18.9996

>  <SCORE.INTER.norm>
-1.17153

>  <SCORE.INTRA>
0

>  <SCORE.INTRA.DIHEDRAL>
0

>  <SCORE.INTRA.DIHEDRAL.0>
0

>  <SCORE.INTRA.POLAR>
0

>  <SCORE.INTRA.POLAR.0>
0

>  <SCORE.INTRA.REPUL>
0

>  <SCORE.INTRA.REPUL.0>
0

>  <SCORE.INTRA.SOLV>
0

>  <SCORE.INTRA.SOLV.lig_0>
-48.1583

>  <SCORE.INTRA.VDW>
0

>  <SCORE.INTRA.VDW.0>
0

>  <SCORE.INTRA.norm>
0

>  <SCORE.RESTR>
0

>  <SCORE.RESTR.CAVITY>
0

>  <SCORE.RESTR.norm>
0

>  <SCORE.SYSTEM>
0

>  <SCORE.SYSTEM.CONST>
0

>  <SCORE.SYSTEM.DIHEDRAL>
0

>  <SCORE.SYSTEM.SOLV>
0

>  <SCORE.SYSTEM.norm>
0

>  <SCORE.heavy>
12

>  <SCORE.norm>
-1.17153

>  <RMSD>
0.565

$$$$
ligand
 OpenBabel02271912143D
libRbt.so/2013.1/901 2013/11/27
 12 13  0  0  0  0  0  0  0  0999 V2000
    6.5937   17.5513    1.7306 C   0  0  0  0  0  0  0  0  0  0  0  0
    5.3606   16.3868    3.3300 C   0  0  0  0  0  0  0  0  0  0  0  0
    7.0078   17.6658    0.4719 N   0  0  0  0  0  0  0  0  0  0  0  0
    4.5924   15.3631    3.7183 N   0  0  0  0  0  0  0  0  0  0  0  0
    5.8090   16.5064    2.0733 N   0  0  0  0  0  0  0  0  0  0  0  0
    6.9401   18.4923    2.6368 N   0  0  0  0  0  0  0  0  0  0  0  0
    5.6354   18.1815    6.5504 N   0  0  0  0  0  0  0  0  0  0  0  0
    6.4475   19.2561    6.1563 C   0  0  0  0  0  0  0  0  0  0  0  0
    6.8968   19.3493    4.8183 N   0  0  0  0  0  0  0  0  0  0  0  0
    6.5205   18.4098    3.9241 C   0  0  0  0  0  0  0  0  0  0  0  0
    5.7022   17.3390    4.2982 C   0  0  0  0  0  0  0  0  0  0  0  0
    5.2487   17.2067    5.6094 C   0  0  0  0  0  0  0  0  0  0  0  0
  1  3  1  0  0  0  0
  1  5  1  0  0  0  0
  1  6  2  0  0  0  0
  2  5  2  0  0  0  0
  2 11  1  0  0  0  0
  2  4  1  0  0  0  0
  6 10  1  0  0  0  0
  7  8  2  0  0  0  0
  7 12  1  0  0  0  0
  8  9  1  0  0  0  0
  9 10  2  0  0  0  0
 10 11  1  0  0  0  0
 11 12  2  0  0  0  0
M  END
>  <CHROM.1>
6.06933408,17.63854647,3.74590287,-1.41514320,0.95044812,1.16289559

>  <Name>
ligand

>  <RI>
0

>  <Rbt.Current_Directory>
/home/itssahil/PROJECTS/Mol_Feturizer/Test_systems_manuscript/rnas/4lx5

>  <Rbt.Executable>
rbdock ($Id: //depot/dev/client3/rdock/2013.1/src/exe/rbdock.cxx#4 $)

>  <Rbt.Library>
libRbt.so (2013.1, Build901 2013/11/27)

>  <Rbt.Parameter_File>
/export/apps/rDock/src/rDock_2013.1_src/data/scripts/dock_solv.prm

>  <Rbt.Receptor>
prm/pocket_docking_4.prm

>  <SCORE>
-14.0447

>  <SCORE.INTER>
-14.0447

>  <SCORE.INTER.CONST>
1

>  <SCORE.INTER.POLAR>
0

>  <SCORE.INTER.ROT>
0

>  <SCORE.INTER.SOLV>
18.8293

>  <SCORE.INTER.VDW>
-19.2396

>  <SCORE.INTER.norm>
-1.17039

>  <SCORE.INTRA>
0

>  <SCORE.INTRA.DIHEDRAL>
0

>  <SCORE.INTRA.DIHEDRAL.0>
0

>  <SCORE.INTRA.POLAR>
0

>  <SCORE.INTRA.POLAR.0>
0

>  <SCORE.INTRA.REPUL>
0

>  <SCORE.INTRA.REPUL.0>
0

>  <SCORE.INTRA.SOLV>
0

>  <SCORE.INTRA.SOLV.lig_0>
-48.1583

>  <SCORE.INTRA.VDW>
0

>  <SCORE.INTRA.VDW.0>
0

>  <SCORE.INTRA.norm>
0

>  <SCORE.RESTR>
0

>  <SCORE.RESTR.CAVITY>
0

>  <SCORE.RESTR.norm>
0

>  <SCORE.SYSTEM>
0

>  <SCORE.SYSTEM.CONST>
0

>  <SCORE.SYSTEM.DIHEDRAL>
0

>  <SCORE.SYSTEM.SOLV>
0

>  <SCORE.SYSTEM.norm>
0

>  <SCORE.heavy>
12

>  <SCORE.norm>
-1.17039

>  <RMSD>
0.569

$$$$
ligand
 OpenBabel02271912143D
libRbt.so/2013.1/901 2013/11/27
 12 13  0  0  0  0  0  0  0  0999 V2000
    6.7684   17.3841    1.8309 C   0  0  0  0  0  0  0  0  0  0  0  0
    5.3612   16.3387    3.3676 C   0  0  0  0  0  0  0  0  0  0  0  0
    7.2670   17.4443    0.5993 N   0  0  0  0  0  0  0  0  0  0  0  0
    4.5020   15.3772    3.7231 N   0  0  0  0  0  0  0  0  0  0  0  0
    5.8941   16.4017    2.1401 N   0  0  0  0  0  0  0  0  0  0  0  0
    7.1212   18.3183    2.7417 N   0  0  0  0  0  0  0  0  0  0  0  0
    5.5569   18.1773    6.5690 N   0  0  0  0  0  0  0  0  0  0  0  0
    6.4636   19.1864    6.2096 C   0  0  0  0  0  0  0  0  0  0  0  0
    7.0008   19.2214    4.9016 N   0  0  0  0  0  0  0  0  0  0  0  0
    6.6175   18.2909    4.0008 C   0  0  0  0  0  0  0  0  0  0  0  0
    5.7062   17.2856    4.3398 C   0  0  0  0  0  0  0  0  0  0  0  0
    5.1638   17.2114    5.6215 C   0  0  0  0  0  0  0  0  0  0  0  0
  1  3  1  0  0  0  0
  1  5  1  0  0  0  0
  1  6  2  0  0  0  0
  2  5  2  0  0  0  0
  2 11  1  0  0  0  0
  2  4  1  0  0  0  0
  6 10  1  0  0  0  0
  7  8  2  0  0  0  0
  7 12  1  0  0  0  0
  8  9  1  0  0  0  0
  9 10  2  0  0  0  0
 10 11  1  0  0  0  0
 11 12  2  0  0  0  0
M  END
>  <CHROM.1>
6.12661247,17.54827178,3.80706434,-1.36893460,0.86222073,1.10780571

>  <Name>
ligand

>  <RI>
0

>  <Rbt.Current_Directory>
/home/itssahil/PROJECTS/Mol_Feturizer/Test_systems_manuscript/rnas/4lx5

>  <Rbt.Executable>
rbdock ($Id: //depot/dev/client3/rdock/2013.1/src/exe/rbdock.cxx#4 $)

>  <Rbt.Library>
libRbt.so (2013.1, Build901 2013/11/27)

>  <Rbt.Parameter_File>
/export/apps/rDock/src/rDock_2013.1_src/data/scripts/dock_solv.prm

>  <Rbt.Receptor>
prm/blind_docking_100.prm

>  <SCORE>
-14.0091

>  <SCORE.INTER>
-14.0091

>  <SCORE.INTER.CONST>
1

>  <SCORE.INTER.POLAR>
0

>  <SCORE.INTER.ROT>
0

>  <SCORE.INTER.SOLV>
18.9846

>  <SCORE.INTER.VDW>
-19.2676

>  <SCORE.INTER.norm>
-1.16742

>  <SCORE.INTRA>
0

>  <SCORE.INTRA.DIHEDRAL>
0

>  <SCORE.INTRA.DIHEDRAL.0>
0

>  <SCORE.INTRA.POLAR>
0

>  <SCORE.INTRA.POLAR.0>
0

>  <SCORE.INTRA.REPUL>
0

>  <SCORE.INTRA.REPUL.0>
0

>  <SCORE.INTRA.SOLV>
0

>  <SCORE.INTRA.SOLV.lig_0>
-48.1583

>  <SCORE.INTRA.VDW>
0

>  <SCORE.INTRA.VDW.0>
0

>  <SCORE.INTRA.norm>
0

>  <SCORE.RESTR>
0

>  <SCORE.RESTR.CAVITY>
0

>  <SCORE.RESTR.norm>
0

>  <SCORE.SYSTEM>
0

>  <SCORE.SYSTEM.CONST>
0

>  <SCORE.SYSTEM.DIHEDRAL>
0

>  <SCORE.SYSTEM.SOLV>
0

>  <SCORE.SYSTEM.norm>
0

>  <SCORE.heavy>
12

>  <SCORE.norm>
-1.16742

>  <RMSD>
0.576

$$$$
ligand
 OpenBabel02271912143D
libRbt.so/2013.1/901 2013/11/27
 12 13  0  0  0  0  0  0  0  0999 V2000
    6.6658   17.5631    1.8250 C   0  0  0  0  0  0  0  0  0  0  0  0
    5.3971   16.3509    3.3599 C   0  0  0  0  0  0  0  0  0  0  0  0
    7.1239   17.7047    0.5844 N   0  0  0  0  0  0  0  0  0  0  0  0
    4.6352   15.3069    3.7042 N   0  0  0  0  0  0  0  0  0  0  0  0
    5.8894   16.4983    2.1227 N   0  0  0  0  0  0  0  0  0  0  0  0
    6.9599   18.4963    2.7573 N   0  0  0  0  0  0  0  0  0  0  0  0
    5.5173   18.1006    6.6144 N   0  0  0  0  0  0  0  0  0  0  0  0
    6.3222   19.1964    6.2667 C   0  0  0  0  0  0  0  0  0  0  0  0
    6.8190   19.3187    4.9480 N   0  0  0  0  0  0  0  0  0  0  0  0
    6.4945   18.3861    4.0266 C   0  0  0  0  0  0  0  0  0  0  0  0
    5.6840   17.2943    4.3542 C   0  0  0  0  0  0  0  0  0  0  0  0
    5.1848   17.1334    5.6454 C   0  0  0  0  0  0  0  0  0  0  0  0
  1  3  1  0  0  0  0
  1  5  1  0  0  0  0
  1  6  2  0  0  0  0
  2  5  2  0  0  0  0
  2 11  1  0  0  0  0
  2  4  1  0  0  0  0
  6 10  1  0  0  0  0
  7  8  2  0  0  0  0
  7 12  1  0  0  0  0
  8  9  1  0  0  0  0
  9 10  2  0  0  0  0
 10 11  1  0  0  0  0
 11 12  2  0  0  0  0
M  END
>  <CHROM.1>
6.06539664,17.60927743,3.82038198,-1.34300558,0.95243458,1.11919232

>  <Name>
ligand

>  <RI>
0

>  <Rbt.Current_Directory>
/home/itssahil/PROJECTS/Mol_Feturizer/Test_systems_manuscript/rnas/4lx5

>  <Rbt.Executable>
rbdock ($Id: //depot/dev/client3/rdock/2013.1/src/exe/rbdock.cxx#4 $)

>  <Rbt.Library>
libRbt.so (2013.1, Build901 2013/11/27)

>  <Rbt.Parameter_File>
/export/apps/rDock/src/rDock_2013.1_src/data/scripts/dock_solv.prm

>  <Rbt.Receptor>
prm/pocket_docking_3.prm

>  <SCORE>
-14.0566

>  <SCORE.INTER>
-14.0566

>  <SCORE.INTER.CONST>
1

>  <SCORE.INTER.POLAR>
0

>  <SCORE.INTER.ROT>
0

>  <SCORE.INTER.SOLV>
19.2459

>  <SCORE.INTER.VDW>
-19.3864

>  <SCORE.INTER.norm>
-1.17138

>  <SCORE.INTRA>
0

>  <SCORE.INTRA.DIHEDRAL>
0

>  <SCORE.INTRA.DIHEDRAL.0>
0

>  <SCORE.INTRA.POLAR>
0

>  <SCORE.INTRA.POLAR.0>
0

>  <SCORE.INTRA.REPUL>
0

>  <SCORE.INTRA.REPUL.0>
0

>  <SCORE.INTRA.SOLV>
0

>  <SCORE.INTRA.SOLV.lig_0>
-48.1583

>  <SCORE.INTRA.VDW>
0

>  <SCORE.INTRA.VDW.0>
0

>  <SCORE.INTRA.norm>
0

>  <SCORE.RESTR>
0

>  <SCORE.RESTR.CAVITY>
0

>  <SCORE.RESTR.norm>
0

>  <SCORE.SYSTEM>
0

>  <SCORE.SYSTEM.CONST>
0

>  <SCORE.SYSTEM.DIHEDRAL>
0

>  <SCORE.SYSTEM.SOLV>
0

>  <SCORE.SYSTEM.norm>
0

>  <SCORE.heavy>
12

>  <SCORE.norm>
-1.17138

>  <RMSD>
0.576

$$$$
ligand
 OpenBabel02271912143D
libRbt.so/2013.1/901 2013/11/27
 12 13  0  0  0  0  0  0  0  0999 V2000
    6.6287   17.6329    1.7447 C   0  0  0  0  0  0  0  0  0  0  0  0
    5.3767   16.4443    3.3114 C   0  0  0  0  0  0  0  0  0  0  0  0
    7.0599   17.7648    0.4935 N   0  0  0  0  0  0  0  0  0  0  0  0
    4.6060   15.4135    3.6756 N   0  0  0  0  0  0  0  0  0  0  0  0
    5.8422   16.5815    2.0627 N   0  0  0  0  0  0  0  0  0  0  0  0
    6.9598   18.5627    2.6679 N   0  0  0  0  0  0  0  0  0  0  0  0
    5.6017   18.1974    6.5585 N   0  0  0  0  0  0  0  0  0  0  0  0
    6.4161   19.2791    6.1898 C   0  0  0  0  0  0  0  0  0  0  0  0
    6.8838   19.3910    4.8596 N   0  0  0  0  0  0  0  0  0  0  0  0
    6.5226   18.4623    3.9480 C   0  0  0  0  0  0  0  0  0  0  0  0
    5.7022   17.3846    4.2967 C   0  0  0  0  0  0  0  0  0  0  0  0
    5.2308   17.2340    5.5995 C   0  0  0  0  0  0  0  0  0  0  0  0
  1  3  1  0  0  0  0
  1  5  1  0  0  0  0
  1  6  2  0  0  0  0
  2  5  2  0  0  0  0
  2 11  1  0  0  0  0
  2  4  1  0  0  0  0
  6 10  1  0  0  0  0
  7  8  2  0  0  0  0
  7 12  1  0  0  0  0
  8  9  1  0  0  0  0
  9 10  2  0  0  0  0
 10 11  1  0  0  0  0
 11 12  2  0  0  0  0
M  END
>  <CHROM.1>
6.07608358,17.69231408,3.75346147,-1.39137107,0.94736008,1.15664208

>  <Name>
ligand

>  <RI>
0

>  <Rbt.Current_Directory>
/home/itssahil/PROJECTS/Mol_Feturizer/Test_systems_manuscript/rnas/4lx5

>  <Rbt.Executable>
rbdock ($Id: //depot/dev/client3/rdock/2013.1/src/exe/rbdock.cxx#4 $)

>  <Rbt.Library>
libRbt.so (2013.1, Build901 2013/11/27)

>  <Rbt.Parameter_File>
/export/apps/rDock/src/rDock_2013.1_src/data/scripts/dock_solv.prm

>  <Rbt.Receptor>
prm/pocket_docking_3.prm

>  <SCORE>
-14.0302

>  <SCORE.INTER>
-14.0302

>  <SCORE.INTER.CONST>
1

>  <SCORE.INTER.POLAR>
0

>  <SCORE.INTER.ROT>
0

>  <SCORE.INTER.SOLV>
18.9371

>  <SCORE.INTER.VDW>
-19.2659

>  <SCORE.INTER.norm>
-1.16919

>  <SCORE.INTRA>
0

>  <SCORE.INTRA.DIHEDRAL>
0

>  <SCORE.INTRA.DIHEDRAL.0>
0

>  <SCORE.INTRA.POLAR>
0

>  <SCORE.INTRA.POLAR.0>
0

>  <SCORE.INTRA.REPUL>
0

>  <SCORE.INTRA.REPUL.0>
0

>  <SCORE.INTRA.SOLV>
0

>  <SCORE.INTRA.SOLV.lig_0>
-48.1583

>  <SCORE.INTRA.VDW>
0

>  <SCORE.INTRA.VDW.0>
0

>  <SCORE.INTRA.norm>
0

>  <SCORE.RESTR>
0

>  <SCORE.RESTR.CAVITY>
0

>  <SCORE.RESTR.norm>
0

>  <SCORE.SYSTEM>
0

>  <SCORE.SYSTEM.CONST>
0

>  <SCORE.SYSTEM.DIHEDRAL>
0

>  <SCORE.SYSTEM.SOLV>
0

>  <SCORE.SYSTEM.norm>
0

>  <SCORE.heavy>
12

>  <SCORE.norm>
-1.16919

>  <RMSD>
0.579

$$$$
ligand
 OpenBabel02271912143D
libRbt.so/2013.1/901 2013/11/27
 12 13  0  0  0  0  0  0  0  0999 V2000
    6.6382   17.5961    1.7599 C   0  0  0  0  0  0  0  0  0  0  0  0
    5.3336   16.4547    3.3188 C   0  0  0  0  0  0  0  0  0  0  0  0
    7.0796   17.7135    0.5108 N   0  0  0  0  0  0  0  0  0  0  0  0
    4.5212   15.4545    3.6775 N   0  0  0  0  0  0  0  0  0  0  0  0
    5.8094   16.5760    2.0724 N   0  0  0  0  0  0  0  0  0  0  0  0
    7.0018   18.5103    2.6866 N   0  0  0  0  0  0  0  0  0  0  0  0
    5.6138   18.1909    6.5707 N   0  0  0  0  0  0  0  0  0  0  0  0
    6.4720   19.2404    6.2078 C   0  0  0  0  0  0  0  0  0  0  0  0
    6.9493   19.3364    4.8798 N   0  0  0  0  0  0  0  0  0  0  0  0
    6.5555   18.4246    3.9646 C   0  0  0  0  0  0  0  0  0  0  0  0
    5.6918   17.3794    4.3075 C   0  0  0  0  0  0  0  0  0  0  0  0
    5.2093   17.2449    5.6081 C   0  0  0  0  0  0  0  0  0  0  0  0
  1  3  1  0  0  0  0
  1  5  1  0  0  0  0
  1  6  2  0  0  0  0
  2  5  2  0  0  0  0
  2 11  1  0  0  0  0
  2  4  1  0  0  0  0
  6 10  1  0  0  0  0
  7  8  2  0  0  0  0
  7 12  1  0  0  0  0
  8  9  1  0  0  0  0
  9 10  2  0  0  0  0
 10 11  1  0  0  0  0
 11 12  2  0  0  0  0
M  END
>  <CHROM.1>
6.07983230,17.67326039,3.76655318,-1.41093448,0.90938955,1.17443967

>  <Name>
ligand

>  <RI>
0

>  <Rbt.Current_Directory>
/home/itssahil/PROJECTS/Mol_Feturizer/Test_systems_manuscript/rnas/4lx5

>  <Rbt.Executable>
rbdock ($Id: //depot/dev/client3/rdock/2013.1/src/exe/rbdock.cxx#4 $)

>  <Rbt.Library>
libRbt.so (2013.1, Build901 2013/11/27)

>  <Rbt.Parameter_File>
/export/apps/rDock/src/rDock_2013.1_src/data/scripts/dock_solv.prm

>  <Rbt.Receptor>
prm/pocket_docking_3.prm

>  <SCORE>
-14.0237

>  <SCORE.INTER>
-14.0237

>  <SCORE.INTER.CONST>
1

>  <SCORE.INTER.POLAR>
0

>  <SCORE.INTER.ROT>
0

>  <SCORE.INTER.SOLV>
18.512

>  <SCORE.INTER.VDW>
-19.1198

>  <SCORE.INTER.norm>
-1.16864

>  <SCORE.INTRA>
0

>  <SCORE.INTRA.DIHEDRAL>
0

>  <SCORE.INTRA.DIHEDRAL.0>
0

>  <SCORE.INTRA.POLAR>
0

>  <SCORE.INTRA.POLAR.0>
0

>  <SCORE.INTRA.REPUL>
0

>  <SCORE.INTRA.REPUL.0>
0

>  <SCORE.INTRA.SOLV>
0

>  <SCORE.INTRA.SOLV.lig_0>
-48.1583

>  <SCORE.INTRA.VDW>
0

>  <SCORE.INTRA.VDW.0>
0

>  <SCORE.INTRA.norm>
0

>  <SCORE.RESTR>
0

>  <SCORE.RESTR.CAVITY>
0

>  <SCORE.RESTR.norm>
0

>  <SCORE.SYSTEM>
0

>  <SCORE.SYSTEM.CONST>
0

>  <SCORE.SYSTEM.DIHEDRAL>
0

>  <SCORE.SYSTEM.SOLV>
0

>  <SCORE.SYSTEM.norm>
0

>  <SCORE.heavy>
12

>  <SCORE.norm>
-1.16864

>  <RMSD>
0.581

$$$$
ligand
 OpenBabel02271912143D
libRbt.so/2013.1/901 2013/11/27
 12 13  0  0  0  0  0  0  0  0999 V2000
    6.6355   17.5794    1.8279 C   0  0  0  0  0  0  0  0  0  0  0  0
    5.3481   16.3778    3.3555 C   0  0  0  0  0  0  0  0  0  0  0  0
    7.0937   17.7229    0.5875 N   0  0  0  0  0  0  0  0  0  0  0  0
    4.5678   15.3451    3.6928 N   0  0  0  0  0  0  0  0  0  0  0  0
    5.8404   16.5265    2.1185 N   0  0  0  0  0  0  0  0  0  0  0  0
    6.9486   18.4993    2.7672 N   0  0  0  0  0  0  0  0  0  0  0  0
    5.5068   18.0980    6.6241 N   0  0  0  0  0  0  0  0  0  0  0  0
    6.3310   19.1817    6.2837 C   0  0  0  0  0  0  0  0  0  0  0  0
    6.8272   19.3058    4.9650 N   0  0  0  0  0  0  0  0  0  0  0  0
    6.4838   18.3870    4.0366 C   0  0  0  0  0  0  0  0  0  0  0  0
    5.6542   17.3076    4.3569 C   0  0  0  0  0  0  0  0  0  0  0  0
    5.1548   17.1450    5.6478 C   0  0  0  0  0  0  0  0  0  0  0  0
  1  3  1  0  0  0  0
  1  5  1  0  0  0  0
  1  6  2  0  0  0  0
  2  5  2  0  0  0  0
  2 11  1  0  0  0  0
  2  4  1  0  0  0  0
  6 10  1  0  0  0  0
  7  8  2  0  0  0  0
  7 12  1  0  0  0  0
  8  9  1  0  0  0  0
  9 10  2  0  0  0  0
 10 11  1  0  0  0  0
 11 12  2  0  0  0  0
M  END
>  <CHROM.1>
6.04017622,17.61994128,3.82489186,-1.35957665,0.93679432,1.14092127

>  <Name>
ligand

>  <RI>
0

>  <Rbt.Current_Directory>
/home/itssahil/PROJECTS/Mol_Feturizer/Test_systems_manuscript/rnas/4lx5

>  <Rbt.Executable>
rbdock ($Id: //depot/dev/client3/rdock/2013.1/src/exe/rbdock.cxx#4 $)

>  <Rbt.Library>
libRbt.so (2013.1, Build901 2013/11/27)

>  <Rbt.Parameter_File>
/export/apps/rDock/src/rDock_2013.1_src/data/scripts/dock_solv.prm

>  <Rbt.Receptor>
prm/pocket_docking_7.prm

>  <SCORE>
-14.0955

>  <SCORE.INTER>
-14.0955

>  <SCORE.INTER.CONST>
1

>  <SCORE.INTER.POLAR>
0

>  <SCORE.INTER.ROT>
0

>  <SCORE.INTER.SOLV>
18.9204

>  <SCORE.INTER.VDW>
-19.3038

>  <SCORE.INTER.norm>
-1.17463

>  <SCORE.INTRA>
0

>  <SCORE.INTRA.DIHEDRAL>
0

>  <SCORE.INTRA.DIHEDRAL.0>
0

>  <SCORE.INTRA.POLAR>
0

>  <SCORE.INTRA.POLAR.0>
0

>  <SCORE.INTRA.REPUL>
0

>  <SCORE.INTRA.REPUL.0>
0

>  <SCORE.INTRA.SOLV>
0

>  <SCORE.INTRA.SOLV.lig_0>
-48.1583

>  <SCORE.INTRA.VDW>
0

>  <SCORE.INTRA.VDW.0>
0

>  <SCORE.INTRA.norm>
0

>  <SCORE.RESTR>
0

>  <SCORE.RESTR.CAVITY>
0

>  <SCORE.RESTR.norm>
0

>  <SCORE.SYSTEM>
0

>  <SCORE.SYSTEM.CONST>
0

>  <SCORE.SYSTEM.DIHEDRAL>
0

>  <SCORE.SYSTEM.SOLV>
0

>  <SCORE.SYSTEM.norm>
0

>  <SCORE.heavy>
12

>  <SCORE.norm>
-1.17463

>  <RMSD>
0.582

$$$$
ligand
 OpenBabel02271912143D
libRbt.so/2013.1/901 2013/11/27
 12 13  0  0  0  0  0  0  0  0999 V2000
    6.6418   17.5840    1.8308 C   0  0  0  0  0  0  0  0  0  0  0  0
    5.3500   16.3821    3.3545 C   0  0  0  0  0  0  0  0  0  0  0  0
    7.1025   17.7285    0.5916 N   0  0  0  0  0  0  0  0  0  0  0  0
    4.5679   15.3499    3.6890 N   0  0  0  0  0  0  0  0  0  0  0  0
    5.8449   16.5317    2.1186 N   0  0  0  0  0  0  0  0  0  0  0  0
    6.9541   18.5024    2.7719 N   0  0  0  0  0  0  0  0  0  0  0  0
    5.5043   18.0981    6.6254 N   0  0  0  0  0  0  0  0  0  0  0  0
    6.3304   19.1813    6.2880 C   0  0  0  0  0  0  0  0  0  0  0  0
    6.8293   19.3064    4.9704 N   0  0  0  0  0  0  0  0  0  0  0  0
    6.4867   18.3892    4.0402 C   0  0  0  0  0  0  0  0  0  0  0  0
    5.6552   17.3103    4.3576 C   0  0  0  0  0  0  0  0  0  0  0  0
    5.1531   17.1468    5.6473 C   0  0  0  0  0  0  0  0  0  0  0  0
  1  3  1  0  0  0  0
  1  5  1  0  0  0  0
  1  6  2  0  0  0  0
  2  5  2  0  0  0  0
  2 11  1  0  0  0  0
  2  4  1  0  0  0  0
  6 10  1  0  0  0  0
  7  8  2  0  0  0  0
  7 12  1  0  0  0  0
  8  9  1  0  0  0  0
  9 10  2  0  0  0  0
 10 11  1  0  0  0  0
 11 12  2  0  0  0  0
M  END
>  <CHROM.1>
6.04260552,17.62284299,3.82673540,-1.35741191,0.93493643,1.14038440

>  <Name>
ligand

>  <RI>
0

>  <Rbt.Current_Directory>
/home/itssahil/PROJECTS/Mol_Feturizer/Test_systems_manuscript/rnas/4lx5

>  <Rbt.Executable>
rbdock ($Id: //depot/dev/client3/rdock/2013.1/src/exe/rbdock.cxx#4 $)

>  <Rbt.Library>
libRbt.so (2013.1, Build901 2013/11/27)

>  <Rbt.Parameter_File>
/export/apps/rDock/src/rDock_2013.1_src/data/scripts/dock_solv.prm

>  <Rbt.Receptor>
prm/pocket_docking_7.prm

>  <SCORE>
-14.0955

>  <SCORE.INTER>
-14.0955

>  <SCORE.INTER.CONST>
1

>  <SCORE.INTER.POLAR>
0

>  <SCORE.INTER.ROT>
0

>  <SCORE.INTER.SOLV>
18.9217

>  <SCORE.INTER.VDW>
-19.3042

>  <SCORE.INTER.norm>
-1.17462

>  <SCORE.INTRA>
0

>  <SCORE.INTRA.DIHEDRAL>
0

>  <SCORE.INTRA.DIHEDRAL.0>
0

>  <SCORE.INTRA.POLAR>
0

>  <SCORE.INTRA.POLAR.0>
0

>  <SCORE.INTRA.REPUL>
0

>  <SCORE.INTRA.REPUL.0>
0

>  <SCORE.INTRA.SOLV>
0

>  <SCORE.INTRA.SOLV.lig_0>
-48.1583

>  <SCORE.INTRA.VDW>
0

>  <SCORE.INTRA.VDW.0>
0

>  <SCORE.INTRA.norm>
0

>  <SCORE.RESTR>
0

>  <SCORE.RESTR.CAVITY>
0

>  <SCORE.RESTR.norm>
0

>  <SCORE.SYSTEM>
0

>  <SCORE.SYSTEM.CONST>
0

>  <SCORE.SYSTEM.DIHEDRAL>
0

>  <SCORE.SYSTEM.SOLV>
0

>  <SCORE.SYSTEM.norm>
0

>  <SCORE.heavy>
12

>  <SCORE.norm>
-1.17462

>  <RMSD>
0.582

$$$$
ligand
 OpenBabel02271912143D
libRbt.so/2013.1/901 2013/11/27
 12 13  0  0  0  0  0  0  0  0999 V2000
    6.6057   17.5556    1.7422 C   0  0  0  0  0  0  0  0  0  0  0  0
    5.2928   16.4519    3.3211 C   0  0  0  0  0  0  0  0  0  0  0  0
    7.0369   17.6560    0.4881 N   0  0  0  0  0  0  0  0  0  0  0  0
    4.4628   15.4716    3.6941 N   0  0  0  0  0  0  0  0  0  0  0  0
    5.7585   16.5554    2.0693 N   0  0  0  0  0  0  0  0  0  0  0  0
    6.9983   18.4673    2.6595 N   0  0  0  0  0  0  0  0  0  0  0  0
    5.6431   18.2012    6.5592 N   0  0  0  0  0  0  0  0  0  0  0  0
    6.5198   19.2298    6.1812 C   0  0  0  0  0  0  0  0  0  0  0  0
    6.9856   19.3075    4.8479 N   0  0  0  0  0  0  0  0  0  0  0  0
    6.5632   18.3989    3.9424 C   0  0  0  0  0  0  0  0  0  0  0  0
    5.6807   17.3746    4.3004 C   0  0  0  0  0  0  0  0  0  0  0  0
    5.2087   17.2583    5.6065 C   0  0  0  0  0  0  0  0  0  0  0  0
  1  3  1  0  0  0  0
  1  5  1  0  0  0  0
  1  6  2  0  0  0  0
  2  5  2  0  0  0  0
  2 11  1  0  0  0  0
  2  4  1  0  0  0  0
  6 10  1  0  0  0  0
  7  8  2  0  0  0  0
  7 12  1  0  0  0  0
  8  9  1  0  0  0  0
  9 10  2  0  0  0  0
 10 11  1  0  0  0  0
 11 12  2  0  0  0  0
M  END
>  <CHROM.1>
6.06948626,17.65676925,3.75379252,-1.43902777,0.89332066,1.19035576

>  <Name>
ligand

>  <RI>
0

>  <Rbt.Current_Directory>
/home/itssahil/PROJECTS/Mol_Feturizer/Test_systems_manuscript/rnas/4lx5

>  <Rbt.Executable>
rbdock ($Id: //depot/dev/client3/rdock/2013.1/src/exe/rbdock.cxx#4 $)

>  <Rbt.Library>
libRbt.so (2013.1, Build901 2013/11/27)

>  <Rbt.Parameter_File>
/export/apps/rDock/src/rDock_2013.1_src/data/scripts/dock_solv.prm

>  <Rbt.Receptor>
prm/pocket_docking_8.prm

>  <SCORE>
-14.0247

>  <SCORE.INTER>
-14.0247

>  <SCORE.INTER.CONST>
1

>  <SCORE.INTER.POLAR>
0

>  <SCORE.INTER.ROT>
0

>  <SCORE.INTER.SOLV>
18.1973

>  <SCORE.INTER.VDW>
-19.0156

>  <SCORE.INTER.norm>
-1.16873

>  <SCORE.INTRA>
0

>  <SCORE.INTRA.DIHEDRAL>
0

>  <SCORE.INTRA.DIHEDRAL.0>
0

>  <SCORE.INTRA.POLAR>
0

>  <SCORE.INTRA.POLAR.0>
0

>  <SCORE.INTRA.REPUL>
0

>  <SCORE.INTRA.REPUL.0>
0

>  <SCORE.INTRA.SOLV>
0

>  <SCORE.INTRA.SOLV.lig_0>
-48.1583

>  <SCORE.INTRA.VDW>
0

>  <SCORE.INTRA.VDW.0>
0

>  <SCORE.INTRA.norm>
0

>  <SCORE.RESTR>
0

>  <SCORE.RESTR.CAVITY>
0

>  <SCORE.RESTR.norm>
0

>  <SCORE.SYSTEM>
0

>  <SCORE.SYSTEM.CONST>
0

>  <SCORE.SYSTEM.DIHEDRAL>
0

>  <SCORE.SYSTEM.SOLV>
0

>  <SCORE.SYSTEM.norm>
0

>  <SCORE.heavy>
12

>  <SCORE.norm>
-1.16873

>  <RMSD>
0.582

$$$$
ligand
 OpenBabel02271912143D
libRbt.so/2013.1/901 2013/11/27
 12 13  0  0  0  0  0  0  0  0999 V2000
    6.6556   17.5916    1.7631 C   0  0  0  0  0  0  0  0  0  0  0  0
    5.3974   16.4169    3.3354 C   0  0  0  0  0  0  0  0  0  0  0  0
    7.0911   17.7130    0.5123 N   0  0  0  0  0  0  0  0  0  0  0  0
    4.6247   15.3898    3.7054 N   0  0  0  0  0  0  0  0  0  0  0  0
    5.8672   16.5435    2.0872 N   0  0  0  0  0  0  0  0  0  0  0  0
    6.9842   18.5289    2.6798 N   0  0  0  0  0  0  0  0  0  0  0  0
    5.6127   18.1966    6.5687 N   0  0  0  0  0  0  0  0  0  0  0  0
    6.4292   19.2747    6.1938 C   0  0  0  0  0  0  0  0  0  0  0  0
    6.9014   19.3753    4.8643 N   0  0  0  0  0  0  0  0  0  0  0  0
    6.5426   18.4393    3.9592 C   0  0  0  0  0  0  0  0  0  0  0  0
    5.7203   17.3651    4.3140 C   0  0  0  0  0  0  0  0  0  0  0  0
    5.2444   17.2256    5.6164 C   0  0  0  0  0  0  0  0  0  0  0  0
  1  3  1  0  0  0  0
  1  5  1  0  0  0  0
  1  6  2  0  0  0  0
  2  5  2  0  0  0  0
  2 11  1  0  0  0  0
  2  4  1  0  0  0  0
  6 10  1  0  0  0  0
  7  8  2  0  0  0  0
  7 12  1  0  0  0  0
  8  9  1  0  0  0  0
  9 10  2  0  0  0  0
 10 11  1  0  0  0  0
 11 12  2  0  0  0  0
M  END
>  <CHROM.1>
6.09620948,17.66806145,3.76950267,-1.38660275,0.94532973,1.14452448

>  <Name>
ligand

>  <RI>
0

>  <Rbt.Current_Directory>
/home/itssahil/PROJECTS/Mol_Feturizer/Test_systems_manuscript/rnas/4lx5

>  <Rbt.Executable>
rbdock ($Id: //depot/dev/client3/rdock/2013.1/src/exe/rbdock.cxx#4 $)

>  <Rbt.Library>
libRbt.so (2013.1, Build901 2013/11/27)

>  <Rbt.Parameter_File>
/export/apps/rDock/src/rDock_2013.1_src/data/scripts/dock_solv.prm

>  <Rbt.Receptor>
prm/pocket_docking_5.prm

>  <SCORE>
-13.9972

>  <SCORE.INTER>
-13.9972

>  <SCORE.INTER.CONST>
1

>  <SCORE.INTER.POLAR>
0

>  <SCORE.INTER.ROT>
0

>  <SCORE.INTER.SOLV>
19.0106

>  <SCORE.INTER.VDW>
-19.2683

>  <SCORE.INTER.norm>
-1.16644

>  <SCORE.INTRA>
0

>  <SCORE.INTRA.DIHEDRAL>
0

>  <SCORE.INTRA.DIHEDRAL.0>
0

>  <SCORE.INTRA.POLAR>
0

>  <SCORE.INTRA.POLAR.0>
0

>  <SCORE.INTRA.REPUL>
0

>  <SCORE.INTRA.REPUL.0>
0

>  <SCORE.INTRA.SOLV>
0

>  <SCORE.INTRA.SOLV.lig_0>
-48.1583

>  <SCORE.INTRA.VDW>
0

>  <SCORE.INTRA.VDW.0>
0

>  <SCORE.INTRA.norm>
0

>  <SCORE.RESTR>
0

>  <SCORE.RESTR.CAVITY>
0

>  <SCORE.RESTR.norm>
0

>  <SCORE.SYSTEM>
0

>  <SCORE.SYSTEM.CONST>
0

>  <SCORE.SYSTEM.DIHEDRAL>
0

>  <SCORE.SYSTEM.SOLV>
0

>  <SCORE.SYSTEM.norm>
0

>  <SCORE.heavy>
12

>  <SCORE.norm>
-1.16644

>  <RMSD>
0.583

$$$$
ligand
 OpenBabel02271912143D
libRbt.so/2013.1/901 2013/11/27
 12 13  0  0  0  0  0  0  0  0999 V2000
    6.6494   17.5952    1.8363 C   0  0  0  0  0  0  0  0  0  0  0  0
    5.3642   16.3824    3.3569 C   0  0  0  0  0  0  0  0  0  0  0  0
    7.1116   17.7438    0.5981 N   0  0  0  0  0  0  0  0  0  0  0  0
    4.5897   15.3438    3.6894 N   0  0  0  0  0  0  0  0  0  0  0  0
    5.8605   16.5364    2.1221 N   0  0  0  0  0  0  0  0  0  0  0  0
    6.9522   18.5159    2.7784 N   0  0  0  0  0  0  0  0  0  0  0  0
    5.4976   18.0986    6.6287 N   0  0  0  0  0  0  0  0  0  0  0  0
    6.3156   19.1885    6.2933 C   0  0  0  0  0  0  0  0  0  0  0  0
    6.8163   19.3181    4.9768 N   0  0  0  0  0  0  0  0  0  0  0  0
    6.4831   18.3984    4.0457 C   0  0  0  0  0  0  0  0  0  0  0  0
    5.6597   17.3127    4.3609 C   0  0  0  0  0  0  0  0  0  0  0  0
    5.1562   17.1447    5.6495 C   0  0  0  0  0  0  0  0  0  0  0  0
  1  3  1  0  0  0  0
  1  5  1  0  0  0  0
  1  6  2  0  0  0  0
  2  5  2  0  0  0  0
  2 11  1  0  0  0  0
  2  4  1  0  0  0  0
  6 10  1  0  0  0  0
  7  8  2  0  0  0  0
  7 12  1  0  0  0  0
  8  9  1  0  0  0  0
  9 10  2  0  0  0  0
 10 11  1  0  0  0  0
 11 12  2  0  0  0  0
M  END
>  <CHROM.1>
6.04568469,17.62857235,3.83099369,-1.34837380,0.94138993,1.13340428

>  <Name>
ligand

>  <RI>
0

>  <Rbt.Current_Directory>
/home/itssahil/PROJECTS/Mol_Feturizer/Test_systems_manuscript/rnas/4lx5

>  <Rbt.Executable>
rbdock ($Id: //depot/dev/client3/rdock/2013.1/src/exe/rbdock.cxx#4 $)

>  <Rbt.Library>
libRbt.so (2013.1, Build901 2013/11/27)

>  <Rbt.Parameter_File>
/export/apps/rDock/src/rDock_2013.1_src/data/scripts/dock_solv.prm

>  <Rbt.Receptor>
prm/pocket_docking_3.prm

>  <SCORE>
-14.088

>  <SCORE.INTER>
-14.088

>  <SCORE.INTER.CONST>
1

>  <SCORE.INTER.POLAR>
0

>  <SCORE.INTER.ROT>
0

>  <SCORE.INTER.SOLV>
19.0225

>  <SCORE.INTER.VDW>
-19.3328

>  <SCORE.INTER.norm>
-1.174

>  <SCORE.INTRA>
0

>  <SCORE.INTRA.DIHEDRAL>
0

>  <SCORE.INTRA.DIHEDRAL.0>
0

>  <SCORE.INTRA.POLAR>
0

>  <SCORE.INTRA.POLAR.0>
0

>  <SCORE.INTRA.REPUL>
0

>  <SCORE.INTRA.REPUL.0>
0

>  <SCORE.INTRA.SOLV>
0

>  <SCORE.INTRA.SOLV.lig_0>
-48.1583

>  <SCORE.INTRA.VDW>
0

>  <SCORE.INTRA.VDW.0>
0

>  <SCORE.INTRA.norm>
0

>  <SCORE.RESTR>
0

>  <SCORE.RESTR.CAVITY>
0

>  <SCORE.RESTR.norm>
0

>  <SCORE.SYSTEM>
0

>  <SCORE.SYSTEM.CONST>
0

>  <SCORE.SYSTEM.DIHEDRAL>
0

>  <SCORE.SYSTEM.SOLV>
0

>  <SCORE.SYSTEM.norm>
0

>  <SCORE.heavy>
12

>  <SCORE.norm>
-1.174

>  <RMSD>
0.586

$$$$
ligand
 OpenBabel02271912143D
libRbt.so/2013.1/901 2013/11/27
 12 13  0  0  0  0  0  0  0  0999 V2000
    6.6084   17.6046    1.8235 C   0  0  0  0  0  0  0  0  0  0  0  0
    5.3445   16.3828    3.3547 C   0  0  0  0  0  0  0  0  0  0  0  0
    7.0556   17.7589    0.5805 N   0  0  0  0  0  0  0  0  0  0  0  0
    4.5769   15.3408    3.6926 N   0  0  0  0  0  0  0  0  0  0  0  0
    5.8259   16.5426    2.1147 N   0  0  0  0  0  0  0  0  0  0  0  0
    6.9196   18.5228    2.7651 N   0  0  0  0  0  0  0  0  0  0  0  0
    5.5113   18.0879    6.6307 N   0  0  0  0  0  0  0  0  0  0  0  0
    6.3222   19.1814    6.2896 C   0  0  0  0  0  0  0  0  0  0  0  0
    6.8071   19.3170    4.9678 N   0  0  0  0  0  0  0  0  0  0  0  0
    6.4657   18.3996    4.0374 C   0  0  0  0  0  0  0  0  0  0  0  0
    5.6491   17.3105    4.3584 C   0  0  0  0  0  0  0  0  0  0  0  0
    5.1612   17.1365    5.6523 C   0  0  0  0  0  0  0  0  0  0  0  0
  1  3  1  0  0  0  0
  1  5  1  0  0  0  0
  1  6  2  0  0  0  0
  2  5  2  0  0  0  0
  2 11  1  0  0  0  0
  2  4  1  0  0  0  0
  6 10  1  0  0  0  0
  7  8  2  0  0  0  0
  7 12  1  0  0  0  0
  8  9  1  0  0  0  0
  9 10  2  0  0  0  0
 10 11  1  0  0  0  0
 11 12  2  0  0  0  0
M  END
>  <CHROM.1>
6.02794156,17.62927860,3.82515463,-1.36450211,0.94886483,1.14999099

>  <Name>
ligand

>  <RI>
0

>  <Rbt.Current_Directory>
/home/itssahil/PROJECTS/Mol_Feturizer/Test_systems_manuscript/rnas/4lx5

>  <Rbt.Executable>
rbdock ($Id: //depot/dev/client3/rdock/2013.1/src/exe/rbdock.cxx#4 $)

>  <Rbt.Library>
libRbt.so (2013.1, Build901 2013/11/27)

>  <Rbt.Parameter_File>
/export/apps/rDock/src/rDock_2013.1_src/data/scripts/dock_solv.prm

>  <Rbt.Receptor>
prm/pocket_docking_3.prm

>  <SCORE>
-14.082

>  <SCORE.INTER>
-14.082

>  <SCORE.INTER.CONST>
1

>  <SCORE.INTER.POLAR>
0

>  <SCORE.INTER.ROT>
0

>  <SCORE.INTER.SOLV>
18.954

>  <SCORE.INTER.VDW>
-19.306

>  <SCORE.INTER.norm>
-1.1735

>  <SCORE.INTRA>
0

>  <SCORE.INTRA.DIHEDRAL>
0

>  <SCORE.INTRA.DIHEDRAL.0>
0

>  <SCORE.INTRA.POLAR>
0

>  <SCORE.INTRA.POLAR.0>
0

>  <SCORE.INTRA.REPUL>
0

>  <SCORE.INTRA.REPUL.0>
0

>  <SCORE.INTRA.SOLV>
0

>  <SCORE.INTRA.SOLV.lig_0>
-48.1583

>  <SCORE.INTRA.VDW>
0

>  <SCORE.INTRA.VDW.0>
0

>  <SCORE.INTRA.norm>
0

>  <SCORE.RESTR>
0

>  <SCORE.RESTR.CAVITY>
0

>  <SCORE.RESTR.norm>
0

>  <SCORE.SYSTEM>
0

>  <SCORE.SYSTEM.CONST>
0

>  <SCORE.SYSTEM.DIHEDRAL>
0

>  <SCORE.SYSTEM.SOLV>
0

>  <SCORE.SYSTEM.norm>
0

>  <SCORE.heavy>
12

>  <SCORE.norm>
-1.1735

>  <RMSD>
0.587

$$$$
ligand
 OpenBabel02271912143D
libRbt.so/2013.1/901 2013/11/27
 12 13  0  0  0  0  0  0  0  0999 V2000
    6.5771   17.5679    1.7268 C   0  0  0  0  0  0  0  0  0  0  0  0
    5.3674   16.3980    3.3402 C   0  0  0  0  0  0  0  0  0  0  0  0
    6.9873   17.6766    0.4663 N   0  0  0  0  0  0  0  0  0  0  0  0
    4.6183   15.3647    3.7403 N   0  0  0  0  0  0  0  0  0  0  0  0
    5.8118   16.5126    2.0816 N   0  0  0  0  0  0  0  0  0  0  0  0
    6.9077   18.5243    2.6227 N   0  0  0  0  0  0  0  0  0  0  0  0
    5.6141   18.2308    6.5413 N   0  0  0  0  0  0  0  0  0  0  0  0
    6.4061   19.3158    6.1348 C   0  0  0  0  0  0  0  0  0  0  0  0
    6.8518   19.4031    4.7952 N   0  0  0  0  0  0  0  0  0  0  0  0
    6.4913   18.4477    3.9114 C   0  0  0  0  0  0  0  0  0  0  0  0
    5.6931   17.3663    4.2979 C   0  0  0  0  0  0  0  0  0  0  0  0
    5.2438   17.2395    5.6111 C   0  0  0  0  0  0  0  0  0  0  0  0
  1  3  1  0  0  0  0
  1  5  1  0  0  0  0
  1  6  2  0  0  0  0
  2  5  2  0  0  0  0
  2 11  1  0  0  0  0
  2  4  1  0  0  0  0
  6 10  1  0  0  0  0
  7  8  2  0  0  0  0
  7 12  1  0  0  0  0
  8  9  1  0  0  0  0
  9 10  2  0  0  0  0
 10 11  1  0  0  0  0
 11 12  2  0  0  0  0
M  END
>  <CHROM.1>
6.05396193,17.66661954,3.74194403,-1.40472533,0.96754920,1.14395149

>  <Name>
ligand

>  <RI>
0

>  <Rbt.Current_Directory>
/home/itssahil/PROJECTS/Mol_Feturizer/Test_systems_manuscript/rnas/4lx5

>  <Rbt.Executable>
rbdock ($Id: //depot/dev/client3/rdock/2013.1/src/exe/rbdock.cxx#4 $)

>  <Rbt.Library>
libRbt.so (2013.1, Build901 2013/11/27)

>  <Rbt.Parameter_File>
/export/apps/rDock/src/rDock_2013.1_src/data/scripts/dock_solv.prm

>  <Rbt.Receptor>
prm/pocket_docking_4.prm

>  <SCORE>
-13.9957

>  <SCORE.INTER>
-13.9957

>  <SCORE.INTER.CONST>
1

>  <SCORE.INTER.POLAR>
0

>  <SCORE.INTER.ROT>
0

>  <SCORE.INTER.SOLV>
18.9336

>  <SCORE.INTER.VDW>
-19.2417

>  <SCORE.INTER.norm>
-1.16631

>  <SCORE.INTRA>
0

>  <SCORE.INTRA.DIHEDRAL>
0

>  <SCORE.INTRA.DIHEDRAL.0>
0

>  <SCORE.INTRA.POLAR>
0

>  <SCORE.INTRA.POLAR.0>
0

>  <SCORE.INTRA.REPUL>
0

>  <SCORE.INTRA.REPUL.0>
0

>  <SCORE.INTRA.SOLV>
0

>  <SCORE.INTRA.SOLV.lig_0>
-48.1583

>  <SCORE.INTRA.VDW>
0

>  <SCORE.INTRA.VDW.0>
0

>  <SCORE.INTRA.norm>
0

>  <SCORE.RESTR>
0

>  <SCORE.RESTR.CAVITY>
0

>  <SCORE.RESTR.norm>
0

>  <SCORE.SYSTEM>
0

>  <SCORE.SYSTEM.CONST>
0

>  <SCORE.SYSTEM.DIHEDRAL>
0

>  <SCORE.SYSTEM.SOLV>
0

>  <SCORE.SYSTEM.norm>
0

>  <SCORE.heavy>
12

>  <SCORE.norm>
-1.16631

>  <RMSD>
0.588

$$$$
ligand
 OpenBabel02271912143D
libRbt.so/2013.1/901 2013/11/27
 12 13  0  0  0  0  0  0  0  0999 V2000
    6.6137   17.6072    1.7591 C   0  0  0  0  0  0  0  0  0  0  0  0
    5.2868   16.4859    3.3137 C   0  0  0  0  0  0  0  0  0  0  0  0
    7.0583   17.7198    0.5107 N   0  0  0  0  0  0  0  0  0  0  0  0
    4.4558   15.4999    3.6690 N   0  0  0  0  0  0  0  0  0  0  0  0
    5.7659   16.6017    2.0680 N   0  0  0  0  0  0  0  0  0  0  0  0
    6.9933   18.5120    2.6885 N   0  0  0  0  0  0  0  0  0  0  0  0
    5.5960   18.2080    6.5705 N   0  0  0  0  0  0  0  0  0  0  0  0
    6.4736   19.2424    6.2111 C   0  0  0  0  0  0  0  0  0  0  0  0
    6.9539   19.3332    4.8838 N   0  0  0  0  0  0  0  0  0  0  0  0
    6.5443   18.4312    3.9659 C   0  0  0  0  0  0  0  0  0  0  0  0
    5.6610   17.4012    4.3052 C   0  0  0  0  0  0  0  0  0  0  0  0
    5.1750   17.2722    5.6050 C   0  0  0  0  0  0  0  0  0  0  0  0
  1  3  1  0  0  0  0
  1  5  1  0  0  0  0
  1  6  2  0  0  0  0
  2  5  2  0  0  0  0
  2 11  1  0  0  0  0
  2  4  1  0  0  0  0
  6 10  1  0  0  0  0
  7  8  2  0  0  0  0
  7 12  1  0  0  0  0
  8  9  1  0  0  0  0
  9 10  2  0  0  0  0
 10 11  1  0  0  0  0
 11 12  2  0  0  0  0
M  END
>  <CHROM.1>
6.05495684,17.68927866,3.76537925,-1.42089976,0.89197825,1.18492346

>  <Name>
ligand

>  <RI>
0

>  <Rbt.Current_Directory>
/home/itssahil/PROJECTS/Mol_Feturizer/Test_systems_manuscript/rnas/4lx5

>  <Rbt.Executable>
rbdock ($Id: //depot/dev/client3/rdock/2013.1/src/exe/rbdock.cxx#4 $)

>  <Rbt.Library>
libRbt.so (2013.1, Build901 2013/11/27)

>  <Rbt.Parameter_File>
/export/apps/rDock/src/rDock_2013.1_src/data/scripts/dock_solv.prm

>  <Rbt.Receptor>
prm/blind_docking_100.prm

>  <SCORE>
-14.0406

>  <SCORE.INTER>
-14.0406

>  <SCORE.INTER.CONST>
1

>  <SCORE.INTER.POLAR>
0

>  <SCORE.INTER.ROT>
0

>  <SCORE.INTER.SOLV>
18.1855

>  <SCORE.INTER.VDW>
-19.0223

>  <SCORE.INTER.norm>
-1.17005

>  <SCORE.INTRA>
0

>  <SCORE.INTRA.DIHEDRAL>
0

>  <SCORE.INTRA.DIHEDRAL.0>
0

>  <SCORE.INTRA.POLAR>
0

>  <SCORE.INTRA.POLAR.0>
0

>  <SCORE.INTRA.REPUL>
0

>  <SCORE.INTRA.REPUL.0>
0

>  <SCORE.INTRA.SOLV>
0

>  <SCORE.INTRA.SOLV.lig_0>
-48.1583

>  <SCORE.INTRA.VDW>
0

>  <SCORE.INTRA.VDW.0>
0

>  <SCORE.INTRA.norm>
0

>  <SCORE.RESTR>
0

>  <SCORE.RESTR.CAVITY>
0

>  <SCORE.RESTR.norm>
0

>  <SCORE.SYSTEM>
0

>  <SCORE.SYSTEM.CONST>
0

>  <SCORE.SYSTEM.DIHEDRAL>
0

>  <SCORE.SYSTEM.SOLV>
0

>  <SCORE.SYSTEM.norm>
0

>  <SCORE.heavy>
12

>  <SCORE.norm>
-1.17005

>  <RMSD>
0.591

$$$$
ligand
 OpenBabel02271912143D
libRbt.so/2013.1/901 2013/11/27
 12 13  0  0  0  0  0  0  0  0999 V2000
    6.6632   17.6010    1.8438 C   0  0  0  0  0  0  0  0  0  0  0  0
    5.3843   16.3786    3.3620 C   0  0  0  0  0  0  0  0  0  0  0  0
    7.1295   17.7511    0.6073 N   0  0  0  0  0  0  0  0  0  0  0  0
    4.6199   15.3325    3.6941 N   0  0  0  0  0  0  0  0  0  0  0  0
    5.8847   16.5344    2.1291 N   0  0  0  0  0  0  0  0  0  0  0  0
    6.9514   18.5278    2.7844 N   0  0  0  0  0  0  0  0  0  0  0  0
    5.4833   18.1060    6.6291 N   0  0  0  0  0  0  0  0  0  0  0  0
    6.2908   19.2039    6.2943 C   0  0  0  0  0  0  0  0  0  0  0  0
    6.7962   19.3351    4.9797 N   0  0  0  0  0  0  0  0  0  0  0  0
    6.4776   18.4090    4.0499 C   0  0  0  0  0  0  0  0  0  0  0  0
    5.6648   17.3152    4.3646 C   0  0  0  0  0  0  0  0  0  0  0  0
    5.1571   17.1455    5.6513 C   0  0  0  0  0  0  0  0  0  0  0  0
  1  3  1  0  0  0  0
  1  5  1  0  0  0  0
  1  6  2  0  0  0  0
  2  5  2  0  0  0  0
  2 11  1  0  0  0  0
  2  4  1  0  0  0  0
  6 10  1  0  0  0  0
  7  8  2  0  0  0  0
  7 12  1  0  0  0  0
  8  9  1  0  0  0  0
  9 10  2  0  0  0  0
 10 11  1  0  0  0  0
 11 12  2  0  0  0  0
M  END
>  <CHROM.1>
6.04975051,17.63369351,3.83549689,-1.33298227,0.94937300,1.11789939

>  <Name>
ligand

>  <RI>
0

>  <Rbt.Current_Directory>
/home/itssahil/PROJECTS/Mol_Feturizer/Test_systems_manuscript/rnas/4lx5

>  <Rbt.Executable>
rbdock ($Id: //depot/dev/client3/rdock/2013.1/src/exe/rbdock.cxx#4 $)

>  <Rbt.Library>
libRbt.so (2013.1, Build901 2013/11/27)

>  <Rbt.Parameter_File>
/export/apps/rDock/src/rDock_2013.1_src/data/scripts/dock_solv.prm

>  <Rbt.Receptor>
prm/pocket_docking_5.prm

>  <SCORE>
-14.0985

>  <SCORE.INTER>
-14.0985

>  <SCORE.INTER.CONST>
1

>  <SCORE.INTER.POLAR>
0

>  <SCORE.INTER.ROT>
0

>  <SCORE.INTER.SOLV>
19.1729

>  <SCORE.INTER.VDW>
-19.3899

>  <SCORE.INTER.norm>
-1.17487

>  <SCORE.INTRA>
0

>  <SCORE.INTRA.DIHEDRAL>
0

>  <SCORE.INTRA.DIHEDRAL.0>
0

>  <SCORE.INTRA.POLAR>
0

>  <SCORE.INTRA.POLAR.0>
0

>  <SCORE.INTRA.REPUL>
0

>  <SCORE.INTRA.REPUL.0>
0

>  <SCORE.INTRA.SOLV>
0

>  <SCORE.INTRA.SOLV.lig_0>
-48.1583

>  <SCORE.INTRA.VDW>
0

>  <SCORE.INTRA.VDW.0>
0

>  <SCORE.INTRA.norm>
0

>  <SCORE.RESTR>
0

>  <SCORE.RESTR.CAVITY>
0

>  <SCORE.RESTR.norm>
0

>  <SCORE.SYSTEM>
0

>  <SCORE.SYSTEM.CONST>
0

>  <SCORE.SYSTEM.DIHEDRAL>
0

>  <SCORE.SYSTEM.SOLV>
0

>  <SCORE.SYSTEM.norm>
0

>  <SCORE.heavy>
12

>  <SCORE.norm>
-1.17487

>  <RMSD>
0.591

$$$$
ligand
 OpenBabel02271912143D
libRbt.so/2013.1/901 2013/11/27
 12 13  0  0  0  0  0  0  0  0999 V2000
    6.5968   17.5869    1.8275 C   0  0  0  0  0  0  0  0  0  0  0  0
    5.3622   16.3527    3.3726 C   0  0  0  0  0  0  0  0  0  0  0  0
    7.0355   17.7410    0.5814 N   0  0  0  0  0  0  0  0  0  0  0  0
    4.6153   15.2992    3.7209 N   0  0  0  0  0  0  0  0  0  0  0  0
    5.8351   16.5128    2.1294 N   0  0  0  0  0  0  0  0  0  0  0  0
    6.8953   18.5170    2.7616 N   0  0  0  0  0  0  0  0  0  0  0  0
    5.5125   18.0826    6.6364 N   0  0  0  0  0  0  0  0  0  0  0  0
    6.3018   19.1883    6.2843 C   0  0  0  0  0  0  0  0  0  0  0  0
    6.7782   19.3239    4.9594 N   0  0  0  0  0  0  0  0  0  0  0  0
    6.4494   18.3941    4.0367 C   0  0  0  0  0  0  0  0  0  0  0  0
    5.6543   17.2925    4.3687 C   0  0  0  0  0  0  0  0  0  0  0  0
    5.1754   17.1184    5.6659 C   0  0  0  0  0  0  0  0  0  0  0  0
  1  3  1  0  0  0  0
  1  5  1  0  0  0  0
  1  6  2  0  0  0  0
  2  5  2  0  0  0  0
  2 11  1  0  0  0  0
  2  4  1  0  0  0  0
  6 10  1  0  0  0  0
  7  8  2  0  0  0  0
  7 12  1  0  0  0  0
  8  9  1  0  0  0  0
  9 10  2  0  0  0  0
 10 11  1  0  0  0  0
 11 12  2  0  0  0  0
M  END
>  <CHROM.1>
6.02489911,17.61451550,3.83158764,-1.35854536,0.96734015,1.13840691

>  <Name>
ligand

>  <RI>
0

>  <Rbt.Current_Directory>
/home/itssahil/PROJECTS/Mol_Feturizer/Test_systems_manuscript/rnas/4lx5

>  <Rbt.Executable>
rbdock ($Id: //depot/dev/client3/rdock/2013.1/src/exe/rbdock.cxx#4 $)

>  <Rbt.Library>
libRbt.so (2013.1, Build901 2013/11/27)

>  <Rbt.Parameter_File>
/export/apps/rDock/src/rDock_2013.1_src/data/scripts/dock_solv.prm

>  <Rbt.Receptor>
prm/pocket_docking_7.prm

>  <SCORE>
-14.0462

>  <SCORE.INTER>
-14.0462

>  <SCORE.INTER.CONST>
1

>  <SCORE.INTER.POLAR>
0

>  <SCORE.INTER.ROT>
0

>  <SCORE.INTER.SOLV>
19.1244

>  <SCORE.INTER.VDW>
-19.3389

>  <SCORE.INTER.norm>
-1.17052

>  <SCORE.INTRA>
0

>  <SCORE.INTRA.DIHEDRAL>
0

>  <SCORE.INTRA.DIHEDRAL.0>
0

>  <SCORE.INTRA.POLAR>
0

>  <SCORE.INTRA.POLAR.0>
0

>  <SCORE.INTRA.REPUL>
0

>  <SCORE.INTRA.REPUL.0>
0

>  <SCORE.INTRA.SOLV>
0

>  <SCORE.INTRA.SOLV.lig_0>
-48.1583

>  <SCORE.INTRA.VDW>
0

>  <SCORE.INTRA.VDW.0>
0

>  <SCORE.INTRA.norm>
0

>  <SCORE.RESTR>
0

>  <SCORE.RESTR.CAVITY>
0

>  <SCORE.RESTR.norm>
0

>  <SCORE.SYSTEM>
0

>  <SCORE.SYSTEM.CONST>
0

>  <SCORE.SYSTEM.DIHEDRAL>
0

>  <SCORE.SYSTEM.SOLV>
0

>  <SCORE.SYSTEM.norm>
0

>  <SCORE.heavy>
12

>  <SCORE.norm>
-1.17052

>  <RMSD>
0.592

$$$$
ligand
 OpenBabel02271912143D
libRbt.so/2013.1/901 2013/11/27
 12 13  0  0  0  0  0  0  0  0999 V2000
    6.6031   17.6406    1.8101 C   0  0  0  0  0  0  0  0  0  0  0  0
    5.2833   16.4578    3.3247 C   0  0  0  0  0  0  0  0  0  0  0  0
    7.0634   17.7865    0.5709 N   0  0  0  0  0  0  0  0  0  0  0  0
    4.4738   15.4440    3.6503 N   0  0  0  0  0  0  0  0  0  0  0  0
    5.7780   16.6077    2.0888 N   0  0  0  0  0  0  0  0  0  0  0  0
    6.9441   18.5391    2.7604 N   0  0  0  0  0  0  0  0  0  0  0  0
    5.4967   18.1310    6.6145 N   0  0  0  0  0  0  0  0  0  0  0  0
    6.3517   19.1945    6.2863 C   0  0  0  0  0  0  0  0  0  0  0  0
    6.8494   19.3208    4.9684 N   0  0  0  0  0  0  0  0  0  0  0  0
    6.4781   18.4243    4.0291 C   0  0  0  0  0  0  0  0  0  0  0  0
    5.6178   17.3655    4.3372 C   0  0  0  0  0  0  0  0  0  0  0  0
    5.1157   17.2011    5.6269 C   0  0  0  0  0  0  0  0  0  0  0  0
  1  3  1  0  0  0  0
  1  5  1  0  0  0  0
  1  6  2  0  0  0  0
  2  5  2  0  0  0  0
  2 11  1  0  0  0  0
  2  4  1  0  0  0  0
  6 10  1  0  0  0  0
  7  8  2  0  0  0  0
  7 12  1  0  0  0  0
  8  9  1  0  0  0  0
  9 10  2  0  0  0  0
 10 11  1  0  0  0  0
 11 12  2  0  0  0  0
M  END
>  <CHROM.1>
6.01197505,17.67316061,3.80853153,-1.38148987,0.91078408,1.17107460

>  <Name>
ligand

>  <RI>
0

>  <Rbt.Current_Directory>
/home/itssahil/PROJECTS/Mol_Feturizer/Test_systems_manuscript/rnas/4lx5

>  <Rbt.Executable>
rbdock ($Id: //depot/dev/client3/rdock/2013.1/src/exe/rbdock.cxx#4 $)

>  <Rbt.Library>
libRbt.so (2013.1, Build901 2013/11/27)

>  <Rbt.Parameter_File>
/export/apps/rDock/src/rDock_2013.1_src/data/scripts/dock_solv.prm

>  <Rbt.Receptor>
prm/pocket_docking_7.prm

>  <SCORE>
-14.0347

>  <SCORE.INTER>
-14.0347

>  <SCORE.INTER.CONST>
1

>  <SCORE.INTER.POLAR>
0

>  <SCORE.INTER.ROT>
0

>  <SCORE.INTER.SOLV>
18.4523

>  <SCORE.INTER.VDW>
-19.1072

>  <SCORE.INTER.norm>
-1.16955

>  <SCORE.INTRA>
0

>  <SCORE.INTRA.DIHEDRAL>
0

>  <SCORE.INTRA.DIHEDRAL.0>
0

>  <SCORE.INTRA.POLAR>
0

>  <SCORE.INTRA.POLAR.0>
0

>  <SCORE.INTRA.REPUL>
0

>  <SCORE.INTRA.REPUL.0>
0

>  <SCORE.INTRA.SOLV>
0

>  <SCORE.INTRA.SOLV.lig_0>
-48.1583

>  <SCORE.INTRA.VDW>
0

>  <SCORE.INTRA.VDW.0>
0

>  <SCORE.INTRA.norm>
0

>  <SCORE.RESTR>
0

>  <SCORE.RESTR.CAVITY>
0

>  <SCORE.RESTR.norm>
0

>  <SCORE.SYSTEM>
0

>  <SCORE.SYSTEM.CONST>
0

>  <SCORE.SYSTEM.DIHEDRAL>
0

>  <SCORE.SYSTEM.SOLV>
0

>  <SCORE.SYSTEM.norm>
0

>  <SCORE.heavy>
12

>  <SCORE.norm>
-1.16955

>  <RMSD>
0.592

$$$$
ligand
 OpenBabel02271912143D
libRbt.so/2013.1/901 2013/11/27
 12 13  0  0  0  0  0  0  0  0999 V2000
    6.6173   17.5866    1.8314 C   0  0  0  0  0  0  0  0  0  0  0  0
    5.3753   16.3537    3.3717 C   0  0  0  0  0  0  0  0  0  0  0  0
    7.0652   17.7373    0.5883 N   0  0  0  0  0  0  0  0  0  0  0  0
    4.6298   15.2987    3.7184 N   0  0  0  0  0  0  0  0  0  0  0  0
    5.8573   16.5107    2.1317 N   0  0  0  0  0  0  0  0  0  0  0  0
    6.9049   18.5214    2.7641 N   0  0  0  0  0  0  0  0  0  0  0  0
    5.4935   18.0970    6.6297 N   0  0  0  0  0  0  0  0  0  0  0  0
    6.2813   19.2044    6.2794 C   0  0  0  0  0  0  0  0  0  0  0  0
    6.7675   19.3365    4.9578 N   0  0  0  0  0  0  0  0  0  0  0  0
    6.4495   18.4019    4.0362 C   0  0  0  0  0  0  0  0  0  0  0  0
    5.6560   17.2985    4.3664 C   0  0  0  0  0  0  0  0  0  0  0  0
    5.1677   17.1277    5.6605 C   0  0  0  0  0  0  0  0  0  0  0  0
  1  3  1  0  0  0  0
  1  5  1  0  0  0  0
  1  6  2  0  0  0  0
  2  5  2  0  0  0  0
  2 11  1  0  0  0  0
  2  4  1  0  0  0  0
  6 10  1  0  0  0  0
  7  8  2  0  0  0  0
  7 12  1  0  0  0  0
  8  9  1  0  0  0  0
  9 10  2  0  0  0  0
 10 11  1  0  0  0  0
 11 12  2  0  0  0  0
M  END
>  <CHROM.1>
6.02960857,17.61984558,3.83088375,-1.34318589,0.96746694,1.12179990

>  <Name>
ligand

>  <RI>
0

>  <Rbt.Current_Directory>
/home/itssahil/PROJECTS/Mol_Feturizer/Test_systems_manuscript/rnas/4lx5

>  <Rbt.Executable>
rbdock ($Id: //depot/dev/client3/rdock/2013.1/src/exe/rbdock.cxx#4 $)

>  <Rbt.Library>
libRbt.so (2013.1, Build901 2013/11/27)

>  <Rbt.Parameter_File>
/export/apps/rDock/src/rDock_2013.1_src/data/scripts/dock_solv.prm

>  <Rbt.Receptor>
prm/pocket_docking_7.prm

>  <SCORE>
-14.0701

>  <SCORE.INTER>
-14.0701

>  <SCORE.INTER.CONST>
1

>  <SCORE.INTER.POLAR>
0

>  <SCORE.INTER.ROT>
0

>  <SCORE.INTER.SOLV>
19.202

>  <SCORE.INTER.VDW>
-19.3807

>  <SCORE.INTER.norm>
-1.17251

>  <SCORE.INTRA>
0

>  <SCORE.INTRA.DIHEDRAL>
0

>  <SCORE.INTRA.DIHEDRAL.0>
0

>  <SCORE.INTRA.POLAR>
0

>  <SCORE.INTRA.POLAR.0>
0

>  <SCORE.INTRA.REPUL>
0

>  <SCORE.INTRA.REPUL.0>
0

>  <SCORE.INTRA.SOLV>
0

>  <SCORE.INTRA.SOLV.lig_0>
-48.1583

>  <SCORE.INTRA.VDW>
0

>  <SCORE.INTRA.VDW.0>
0

>  <SCORE.INTRA.norm>
0

>  <SCORE.RESTR>
0

>  <SCORE.RESTR.CAVITY>
0

>  <SCORE.RESTR.norm>
0

>  <SCORE.SYSTEM>
0

>  <SCORE.SYSTEM.CONST>
0

>  <SCORE.SYSTEM.DIHEDRAL>
0

>  <SCORE.SYSTEM.SOLV>
0

>  <SCORE.SYSTEM.norm>
0

>  <SCORE.heavy>
12

>  <SCORE.norm>
-1.17251

>  <RMSD>
0.592

$$$$
ligand
 OpenBabel02271912143D
libRbt.so/2013.1/901 2013/11/27
 12 13  0  0  0  0  0  0  0  0999 V2000
    6.6169   17.5830    1.8316 C   0  0  0  0  0  0  0  0  0  0  0  0
    5.3773   16.3512    3.3746 C   0  0  0  0  0  0  0  0  0  0  0  0
    7.0633   17.7327    0.5877 N   0  0  0  0  0  0  0  0  0  0  0  0
    4.6325   15.2962    3.7232 N   0  0  0  0  0  0  0  0  0  0  0  0
    5.8577   16.5071    2.1338 N   0  0  0  0  0  0  0  0  0  0  0  0
    6.9054   18.5189    2.7630 N   0  0  0  0  0  0  0  0  0  0  0  0
    5.4988   18.0978    6.6306 N   0  0  0  0  0  0  0  0  0  0  0  0
    6.2858   19.2050    6.2783 C   0  0  0  0  0  0  0  0  0  0  0  0
    6.7704   19.3360    4.9560 N   0  0  0  0  0  0  0  0  0  0  0  0
    6.4516   18.4004    4.0357 C   0  0  0  0  0  0  0  0  0  0  0  0
    5.6589   17.2971    4.3679 C   0  0  0  0  0  0  0  0  0  0  0  0
    5.1721   17.1274    5.6628 C   0  0  0  0  0  0  0  0  0  0  0  0
  1  3  1  0  0  0  0
  1  5  1  0  0  0  0
  1  6  2  0  0  0  0
  2  5  2  0  0  0  0
  2 11  1  0  0  0  0
  2  4  1  0  0  0  0
  6 10  1  0  0  0  0
  7  8  2  0  0  0  0
  7 12  1  0  0  0  0
  8  9  1  0  0  0  0
  9 10  2  0  0  0  0
 10 11  1  0  0  0  0
 11 12  2  0  0  0  0
M  END
>  <CHROM.1>
6.03166589,17.61801818,3.83167846,-1.34485449,0.96829547,1.12219203

>  <Name>
ligand

>  <RI>
0

>  <Rbt.Current_Directory>
/home/itssahil/PROJECTS/Mol_Feturizer/Test_systems_manuscript/rnas/4lx5

>  <Rbt.Executable>
rbdock ($Id: //depot/dev/client3/rdock/2013.1/src/exe/rbdock.cxx#4 $)

>  <Rbt.Library>
libRbt.so (2013.1, Build901 2013/11/27)

>  <Rbt.Parameter_File>
/export/apps/rDock/src/rDock_2013.1_src/data/scripts/dock_solv.prm

>  <Rbt.Receptor>
prm/blind_docking_80.prm

>  <SCORE>
-14.0724

>  <SCORE.INTER>
-14.0724

>  <SCORE.INTER.CONST>
1

>  <SCORE.INTER.POLAR>
0

>  <SCORE.INTER.ROT>
0

>  <SCORE.INTER.SOLV>
19.2083

>  <SCORE.INTER.VDW>
-19.3844

>  <SCORE.INTER.norm>
-1.1727

>  <SCORE.INTRA>
0

>  <SCORE.INTRA.DIHEDRAL>
0

>  <SCORE.INTRA.DIHEDRAL.0>
0

>  <SCORE.INTRA.POLAR>
0

>  <SCORE.INTRA.POLAR.0>
0

>  <SCORE.INTRA.REPUL>
0

>  <SCORE.INTRA.REPUL.0>
0

>  <SCORE.INTRA.SOLV>
0

>  <SCORE.INTRA.SOLV.lig_0>
-48.1583

>  <SCORE.INTRA.VDW>
0

>  <SCORE.INTRA.VDW.0>
0

>  <SCORE.INTRA.norm>
0

>  <SCORE.RESTR>
0

>  <SCORE.RESTR.CAVITY>
0

>  <SCORE.RESTR.norm>
0

>  <SCORE.SYSTEM>
0

>  <SCORE.SYSTEM.CONST>
0

>  <SCORE.SYSTEM.DIHEDRAL>
0

>  <SCORE.SYSTEM.SOLV>
0

>  <SCORE.SYSTEM.norm>
0

>  <SCORE.heavy>
12

>  <SCORE.norm>
-1.1727

>  <RMSD>
0.593

$$$$
ligand
 OpenBabel02271912143D
libRbt.so/2013.1/901 2013/11/27
 12 13  0  0  0  0  0  0  0  0999 V2000
    6.6270   17.5849    1.8350 C   0  0  0  0  0  0  0  0  0  0  0  0
    5.3806   16.3538    3.3731 C   0  0  0  0  0  0  0  0  0  0  0  0
    7.0776   17.7349    0.5926 N   0  0  0  0  0  0  0  0  0  0  0  0
    4.6332   15.2998    3.7185 N   0  0  0  0  0  0  0  0  0  0  0  0
    5.8652   16.5100    2.1339 N   0  0  0  0  0  0  0  0  0  0  0  0
    6.9139   18.5197    2.7680 N   0  0  0  0  0  0  0  0  0  0  0  0
    5.4943   18.0979    6.6308 N   0  0  0  0  0  0  0  0  0  0  0  0
    6.2841   19.2042    6.2818 C   0  0  0  0  0  0  0  0  0  0  0  0
    6.7731   19.3355    4.9611 N   0  0  0  0  0  0  0  0  0  0  0  0
    6.4559   18.4010    4.0392 C   0  0  0  0  0  0  0  0  0  0  0  0
    5.6604   17.2986    4.3681 C   0  0  0  0  0  0  0  0  0  0  0  0
    5.1693   17.1287    5.6612 C   0  0  0  0  0  0  0  0  0  0  0  0
  1  3  1  0  0  0  0
  1  5  1  0  0  0  0
  1  6  2  0  0  0  0
  2  5  2  0  0  0  0
  2 11  1  0  0  0  0
  2  4  1  0  0  0  0
  6 10  1  0  0  0  0
  7  8  2  0  0  0  0
  7 12  1  0  0  0  0
  8  9  1  0  0  0  0
  9 10  2  0  0  0  0
 10 11  1  0  0  0  0
 11 12  2  0  0  0  0
M  END
>  <CHROM.1>
6.03543898,17.61938091,3.83322261,-1.34092816,0.96555790,1.11969389

>  <Name>
ligand

>  <RI>
0

>  <Rbt.Current_Directory>
/home/itssahil/PROJECTS/Mol_Feturizer/Test_systems_manuscript/rnas/4lx5

>  <Rbt.Executable>
rbdock ($Id: //depot/dev/client3/rdock/2013.1/src/exe/rbdock.cxx#4 $)

>  <Rbt.Library>
libRbt.so (2013.1, Build901 2013/11/27)

>  <Rbt.Parameter_File>
/export/apps/rDock/src/rDock_2013.1_src/data/scripts/dock_solv.prm

>  <Rbt.Receptor>
prm/pocket_docking_5.prm

>  <SCORE>
-14.0735

>  <SCORE.INTER>
-14.0735

>  <SCORE.INTER.CONST>
1

>  <SCORE.INTER.POLAR>
0

>  <SCORE.INTER.ROT>
0

>  <SCORE.INTER.SOLV>
19.2181

>  <SCORE.INTER.VDW>
-19.3884

>  <SCORE.INTER.norm>
-1.17279

>  <SCORE.INTRA>
0

>  <SCORE.INTRA.DIHEDRAL>
0

>  <SCORE.INTRA.DIHEDRAL.0>
0

>  <SCORE.INTRA.POLAR>
0

>  <SCORE.INTRA.POLAR.0>
0

>  <SCORE.INTRA.REPUL>
0

>  <SCORE.INTRA.REPUL.0>
0

>  <SCORE.INTRA.SOLV>
0

>  <SCORE.INTRA.SOLV.lig_0>
-48.1583

>  <SCORE.INTRA.VDW>
0

>  <SCORE.INTRA.VDW.0>
0

>  <SCORE.INTRA.norm>
0

>  <SCORE.RESTR>
0

>  <SCORE.RESTR.CAVITY>
0

>  <SCORE.RESTR.norm>
0

>  <SCORE.SYSTEM>
0

>  <SCORE.SYSTEM.CONST>
0

>  <SCORE.SYSTEM.DIHEDRAL>
0

>  <SCORE.SYSTEM.SOLV>
0

>  <SCORE.SYSTEM.norm>
0

>  <SCORE.heavy>
12

>  <SCORE.norm>
-1.17279

>  <RMSD>
0.593

$$$$
ligand
 OpenBabel02271912143D
libRbt.so/2013.1/901 2013/11/27
 12 13  0  0  0  0  0  0  0  0999 V2000
    6.6037   17.5833    1.8278 C   0  0  0  0  0  0  0  0  0  0  0  0
    5.3716   16.3492    3.3749 C   0  0  0  0  0  0  0  0  0  0  0  0
    7.0451   17.7343    0.5823 N   0  0  0  0  0  0  0  0  0  0  0  0
    4.6295   15.2932    3.7259 N   0  0  0  0  0  0  0  0  0  0  0  0
    5.8470   16.5064    2.1324 N   0  0  0  0  0  0  0  0  0  0  0  0
    6.8946   18.5191    2.7586 N   0  0  0  0  0  0  0  0  0  0  0  0
    5.5034   18.0943    6.6314 N   0  0  0  0  0  0  0  0  0  0  0  0
    6.2876   19.2027    6.2767 C   0  0  0  0  0  0  0  0  0  0  0  0
    6.7670   19.3350    4.9525 N   0  0  0  0  0  0  0  0  0  0  0  0
    6.4458   18.3994    4.0330 C   0  0  0  0  0  0  0  0  0  0  0  0
    5.6558   17.2950    4.3677 C   0  0  0  0  0  0  0  0  0  0  0  0
    5.1742   17.1240    5.6643 C   0  0  0  0  0  0  0  0  0  0  0  0
  1  3  1  0  0  0  0
  1  5  1  0  0  0  0
  1  6  2  0  0  0  0
  2  5  2  0  0  0  0
  2 11  1  0  0  0  0
  2  4  1  0  0  0  0
  6 10  1  0  0  0  0
  7  8  2  0  0  0  0
  7 12  1  0  0  0  0
  8  9  1  0  0  0  0
  9 10  2  0  0  0  0
 10 11  1  0  0  0  0
 11 12  2  0  0  0  0
M  END
>  <CHROM.1>
6.02611632,17.61664571,3.83020686,-1.35001642,0.97109094,1.12696020

>  <Name>
ligand

>  <RI>
0

>  <Rbt.Current_Directory>
/home/itssahil/PROJECTS/Mol_Feturizer/Test_systems_manuscript/rnas/4lx5

>  <Rbt.Executable>
rbdock ($Id: //depot/dev/client3/rdock/2013.1/src/exe/rbdock.cxx#4 $)

>  <Rbt.Library>
libRbt.so (2013.1, Build901 2013/11/27)

>  <Rbt.Parameter_File>
/export/apps/rDock/src/rDock_2013.1_src/data/scripts/dock_solv.prm

>  <Rbt.Receptor>
prm/blind_docking_80.prm

>  <SCORE>
-14.0689

>  <SCORE.INTER>
-14.0689

>  <SCORE.INTER.CONST>
1

>  <SCORE.INTER.POLAR>
0

>  <SCORE.INTER.ROT>
0

>  <SCORE.INTER.SOLV>
19.1887

>  <SCORE.INTER.VDW>
-19.3755

>  <SCORE.INTER.norm>
-1.17241

>  <SCORE.INTRA>
0

>  <SCORE.INTRA.DIHEDRAL>
0

>  <SCORE.INTRA.DIHEDRAL.0>
0

>  <SCORE.INTRA.POLAR>
0

>  <SCORE.INTRA.POLAR.0>
0

>  <SCORE.INTRA.REPUL>
0

>  <SCORE.INTRA.REPUL.0>
0

>  <SCORE.INTRA.SOLV>
0

>  <SCORE.INTRA.SOLV.lig_0>
-48.1583

>  <SCORE.INTRA.VDW>
0

>  <SCORE.INTRA.VDW.0>
0

>  <SCORE.INTRA.norm>
0

>  <SCORE.RESTR>
0

>  <SCORE.RESTR.CAVITY>
0

>  <SCORE.RESTR.norm>
0

>  <SCORE.SYSTEM>
0

>  <SCORE.SYSTEM.CONST>
0

>  <SCORE.SYSTEM.DIHEDRAL>
0

>  <SCORE.SYSTEM.SOLV>
0

>  <SCORE.SYSTEM.norm>
0

>  <SCORE.heavy>
12

>  <SCORE.norm>
-1.17241

>  <RMSD>
0.594

$$$$
ligand
 OpenBabel02271912143D
libRbt.so/2013.1/901 2013/11/27
 12 13  0  0  0  0  0  0  0  0999 V2000
    6.6510   17.5988    1.8425 C   0  0  0  0  0  0  0  0  0  0  0  0
    5.3752   16.3793    3.3657 C   0  0  0  0  0  0  0  0  0  0  0  0
    7.1128   17.7479    0.6042 N   0  0  0  0  0  0  0  0  0  0  0  0
    4.6096   15.3350    3.7006 N   0  0  0  0  0  0  0  0  0  0  0  0
    5.8711   16.5340    2.1308 N   0  0  0  0  0  0  0  0  0  0  0  0
    6.9451   18.5247    2.7821 N   0  0  0  0  0  0  0  0  0  0  0  0
    5.4914   18.1059    6.6326 N   0  0  0  0  0  0  0  0  0  0  0  0
    6.3002   19.2019    6.2947 C   0  0  0  0  0  0  0  0  0  0  0  0
    6.8007   19.3321    4.9781 N   0  0  0  0  0  0  0  0  0  0  0  0
    6.4762   18.4069    4.0494 C   0  0  0  0  0  0  0  0  0  0  0  0
    5.6619   17.3150    4.3672 C   0  0  0  0  0  0  0  0  0  0  0  0
    5.1590   17.1463    5.6560 C   0  0  0  0  0  0  0  0  0  0  0  0
  1  3  1  0  0  0  0
  1  5  1  0  0  0  0
  1  6  2  0  0  0  0
  2  5  2  0  0  0  0
  2 11  1  0  0  0  0
  2  4  1  0  0  0  0
  6 10  1  0  0  0  0
  7  8  2  0  0  0  0
  7 12  1  0  0  0  0
  8  9  1  0  0  0  0
  9 10  2  0  0  0  0
 10 11  1  0  0  0  0
 11 12  2  0  0  0  0
M  END
>  <CHROM.1>
6.04556533,17.63265501,3.83664556,-1.34095533,0.94891246,1.12451888

>  <Name>
ligand

>  <RI>
0

>  <Rbt.Current_Directory>
/home/itssahil/PROJECTS/Mol_Feturizer/Test_systems_manuscript/rnas/4lx5

>  <Rbt.Executable>
rbdock ($Id: //depot/dev/client3/rdock/2013.1/src/exe/rbdock.cxx#4 $)

>  <Rbt.Library>
libRbt.so (2013.1, Build901 2013/11/27)

>  <Rbt.Parameter_File>
/export/apps/rDock/src/rDock_2013.1_src/data/scripts/dock_solv.prm

>  <Rbt.Receptor>
prm/pocket_docking_4.prm

>  <SCORE>
-14.1071

>  <SCORE.INTER>
-14.1071

>  <SCORE.INTER.CONST>
1

>  <SCORE.INTER.POLAR>
0

>  <SCORE.INTER.ROT>
0

>  <SCORE.INTER.SOLV>
19.1179

>  <SCORE.INTER.VDW>
-19.3774

>  <SCORE.INTER.norm>
-1.17559

>  <SCORE.INTRA>
0

>  <SCORE.INTRA.DIHEDRAL>
0

>  <SCORE.INTRA.DIHEDRAL.0>
0

>  <SCORE.INTRA.POLAR>
0

>  <SCORE.INTRA.POLAR.0>
0

>  <SCORE.INTRA.REPUL>
0

>  <SCORE.INTRA.REPUL.0>
0

>  <SCORE.INTRA.SOLV>
0

>  <SCORE.INTRA.SOLV.lig_0>
-48.1583

>  <SCORE.INTRA.VDW>
0

>  <SCORE.INTRA.VDW.0>
0

>  <SCORE.INTRA.norm>
0

>  <SCORE.RESTR>
0

>  <SCORE.RESTR.CAVITY>
0

>  <SCORE.RESTR.norm>
0

>  <SCORE.SYSTEM>
0

>  <SCORE.SYSTEM.CONST>
0

>  <SCORE.SYSTEM.DIHEDRAL>
0

>  <SCORE.SYSTEM.SOLV>
0

>  <SCORE.SYSTEM.norm>
0

>  <SCORE.heavy>
12

>  <SCORE.norm>
-1.17559

>  <RMSD>
0.594

$$$$
ligand
 OpenBabel02271912143D
libRbt.so/2013.1/901 2013/11/27
 12 13  0  0  0  0  0  0  0  0999 V2000
    6.6721   17.5880    1.8404 C   0  0  0  0  0  0  0  0  0  0  0  0
    5.4196   16.3574    3.3739 C   0  0  0  0  0  0  0  0  0  0  0  0
    7.1343   17.7333    0.6018 N   0  0  0  0  0  0  0  0  0  0  0  0
    4.6770   15.2998    3.7188 N   0  0  0  0  0  0  0  0  0  0  0  0
    5.9158   16.5091    2.1388 N   0  0  0  0  0  0  0  0  0  0  0  0
    6.9420   18.5313    2.7700 N   0  0  0  0  0  0  0  0  0  0  0  0
    5.4859   18.1241    6.6208 N   0  0  0  0  0  0  0  0  0  0  0  0
    6.2705   19.2343    6.2725 C   0  0  0  0  0  0  0  0  0  0  0  0
    6.7721   19.3606    4.9560 N   0  0  0  0  0  0  0  0  0  0  0  0
    6.4718   18.4174    4.0372 C   0  0  0  0  0  0  0  0  0  0  0  0
    5.6817   17.3110    4.3653 C   0  0  0  0  0  0  0  0  0  0  0  0
    5.1786   17.1458    5.6545 C   0  0  0  0  0  0  0  0  0  0  0  0
  1  3  1  0  0  0  0
  1  5  1  0  0  0  0
  1  6  2  0  0  0  0
  2  5  2  0  0  0  0
  2 11  1  0  0  0  0
  2  4  1  0  0  0  0
  6 10  1  0  0  0  0
  7  8  2  0  0  0  0
  7 12  1  0  0  0  0
  8  9  1  0  0  0  0
  9 10  2  0  0  0  0
 10 11  1  0  0  0  0
 11 12  2  0  0  0  0
M  END
>  <CHROM.1>
6.05965818,17.63117341,3.83221052,-1.31845904,0.96805152,1.09446639

>  <Name>
ligand

>  <RI>
0

>  <Rbt.Current_Directory>
/home/itssahil/PROJECTS/Mol_Feturizer/Test_systems_manuscript/rnas/4lx5

>  <Rbt.Executable>
rbdock ($Id: //depot/dev/client3/rdock/2013.1/src/exe/rbdock.cxx#4 $)

>  <Rbt.Library>
libRbt.so (2013.1, Build901 2013/11/27)

>  <Rbt.Parameter_File>
/export/apps/rDock/src/rDock_2013.1_src/data/scripts/dock_solv.prm

>  <Rbt.Receptor>
prm/blind_docking_40.prm

>  <SCORE>
-14.08

>  <SCORE.INTER>
-14.08

>  <SCORE.INTER.CONST>
1

>  <SCORE.INTER.POLAR>
0

>  <SCORE.INTER.ROT>
0

>  <SCORE.INTER.SOLV>
19.4253

>  <SCORE.INTER.VDW>
-19.4617

>  <SCORE.INTER.norm>
-1.17333

>  <SCORE.INTRA>
0

>  <SCORE.INTRA.DIHEDRAL>
0

>  <SCORE.INTRA.DIHEDRAL.0>
0

>  <SCORE.INTRA.POLAR>
0

>  <SCORE.INTRA.POLAR.0>
0

>  <SCORE.INTRA.REPUL>
0

>  <SCORE.INTRA.REPUL.0>
0

>  <SCORE.INTRA.SOLV>
0

>  <SCORE.INTRA.SOLV.lig_0>
-48.1583

>  <SCORE.INTRA.VDW>
0

>  <SCORE.INTRA.VDW.0>
0

>  <SCORE.INTRA.norm>
0

>  <SCORE.RESTR>
0

>  <SCORE.RESTR.CAVITY>
0

>  <SCORE.RESTR.norm>
0

>  <SCORE.SYSTEM>
0

>  <SCORE.SYSTEM.CONST>
0

>  <SCORE.SYSTEM.DIHEDRAL>
0

>  <SCORE.SYSTEM.SOLV>
0

>  <SCORE.SYSTEM.norm>
0

>  <SCORE.heavy>
12

>  <SCORE.norm>
-1.17333

>  <RMSD>
0.595

$$$$
ligand
 OpenBabel02271912143D
libRbt.so/2013.1/901 2013/11/27
 12 13  0  0  0  0  0  0  0  0999 V2000
    6.6529   17.6126    1.8292 C   0  0  0  0  0  0  0  0  0  0  0  0
    5.3931   16.3884    3.3620 C   0  0  0  0  0  0  0  0  0  0  0  0
    7.1059   17.7626    0.5878 N   0  0  0  0  0  0  0  0  0  0  0  0
    4.6350   15.3407    3.7030 N   0  0  0  0  0  0  0  0  0  0  0  0
    5.8802   16.5443    2.1238 N   0  0  0  0  0  0  0  0  0  0  0  0
    6.9485   18.5411    2.7659 N   0  0  0  0  0  0  0  0  0  0  0  0
    5.5218   18.1194    6.6261 N   0  0  0  0  0  0  0  0  0  0  0  0
    6.3229   19.2190    6.2818 C   0  0  0  0  0  0  0  0  0  0  0  0
    6.8142   19.3502    4.9619 N   0  0  0  0  0  0  0  0  0  0  0  0
    6.4883   18.4223    4.0363 C   0  0  0  0  0  0  0  0  0  0  0  0
    5.6816   17.3267    4.3606 C   0  0  0  0  0  0  0  0  0  0  0  0
    5.1879   17.1570    5.6528 C   0  0  0  0  0  0  0  0  0  0  0  0
  1  3  1  0  0  0  0
  1  5  1  0  0  0  0
  1  6  2  0  0  0  0
  2  5  2  0  0  0  0
  2 11  1  0  0  0  0
  2  4  1  0  0  0  0
  6 10  1  0  0  0  0
  7  8  2  0  0  0  0
  7 12  1  0  0  0  0
  8  9  1  0  0  0  0
  9 10  2  0  0  0  0
 10 11  1  0  0  0  0
 11 12  2  0  0  0  0
M  END
>  <CHROM.1>
6.06022290,17.64569210,3.82720548,-1.34730046,0.95623736,1.12857133

>  <Name>
ligand

>  <RI>
0

>  <Rbt.Current_Directory>
/home/itssahil/PROJECTS/Mol_Feturizer/Test_systems_manuscript/rnas/4lx5

>  <Rbt.Executable>
rbdock ($Id: //depot/dev/client3/rdock/2013.1/src/exe/rbdock.cxx#4 $)

>  <Rbt.Library>
libRbt.so (2013.1, Build901 2013/11/27)

>  <Rbt.Parameter_File>
/export/apps/rDock/src/rDock_2013.1_src/data/scripts/dock_solv.prm

>  <Rbt.Receptor>
prm/blind_docking_60.prm

>  <SCORE>
-14.1055

>  <SCORE.INTER>
-14.1055

>  <SCORE.INTER.CONST>
1

>  <SCORE.INTER.POLAR>
0

>  <SCORE.INTER.ROT>
0

>  <SCORE.INTER.SOLV>
19.1974

>  <SCORE.INTER.VDW>
-19.4028

>  <SCORE.INTER.norm>
-1.17546

>  <SCORE.INTRA>
0

>  <SCORE.INTRA.DIHEDRAL>
0

>  <SCORE.INTRA.DIHEDRAL.0>
0

>  <SCORE.INTRA.POLAR>
0

>  <SCORE.INTRA.POLAR.0>
0

>  <SCORE.INTRA.REPUL>
0

>  <SCORE.INTRA.REPUL.0>
0

>  <SCORE.INTRA.SOLV>
0

>  <SCORE.INTRA.SOLV.lig_0>
-48.1583

>  <SCORE.INTRA.VDW>
0

>  <SCORE.INTRA.VDW.0>
0

>  <SCORE.INTRA.norm>
0

>  <SCORE.RESTR>
0

>  <SCORE.RESTR.CAVITY>
0

>  <SCORE.RESTR.norm>
0

>  <SCORE.SYSTEM>
0

>  <SCORE.SYSTEM.CONST>
0

>  <SCORE.SYSTEM.DIHEDRAL>
0

>  <SCORE.SYSTEM.SOLV>
0

>  <SCORE.SYSTEM.norm>
0

>  <SCORE.heavy>
12

>  <SCORE.norm>
-1.17546

>  <RMSD>
0.595

$$$$
ligand
 OpenBabel02271912143D
libRbt.so/2013.1/901 2013/11/27
 12 13  0  0  0  0  0  0  0  0999 V2000
    6.6453   17.6113    1.8455 C   0  0  0  0  0  0  0  0  0  0  0  0
    5.3623   16.3914    3.3624 C   0  0  0  0  0  0  0  0  0  0  0  0
    7.1034   17.7672    0.6067 N   0  0  0  0  0  0  0  0  0  0  0  0
    4.5864   15.3526    3.6905 N   0  0  0  0  0  0  0  0  0  0  0  0
    5.8546   16.5526    2.1269 N   0  0  0  0  0  0  0  0  0  0  0  0
    6.9539   18.5247    2.7928 N   0  0  0  0  0  0  0  0  0  0  0  0
    5.5120   18.0847    6.6453 N   0  0  0  0  0  0  0  0  0  0  0  0
    6.3316   19.1748    6.3145 C   0  0  0  0  0  0  0  0  0  0  0  0
    6.8279   19.3122    4.9971 N   0  0  0  0  0  0  0  0  0  0  0  0
    6.4890   18.3997    4.0609 C   0  0  0  0  0  0  0  0  0  0  0  0
    5.6639   17.3141    4.3717 C   0  0  0  0  0  0  0  0  0  0  0  0
    5.1646   17.1385    5.6609 C   0  0  0  0  0  0  0  0  0  0  0  0
  1  3  1  0  0  0  0
  1  5  1  0  0  0  0
  1  6  2  0  0  0  0
  2  5  2  0  0  0  0
  2 11  1  0  0  0  0
  2  4  1  0  0  0  0
  6 10  1  0  0  0  0
  7  8  2  0  0  0  0
  7 12  1  0  0  0  0
  8  9  1  0  0  0  0
  9 10  2  0  0  0  0
 10 11  1  0  0  0  0
 11 12  2  0  0  0  0
M  END
>  <CHROM.1>
6.04879748,17.63252329,3.84253158,-1.35575539,0.94051865,1.14623316

>  <Name>
ligand

>  <RI>
0

>  <Rbt.Current_Directory>
/home/itssahil/PROJECTS/Mol_Feturizer/Test_systems_manuscript/rnas/4lx5

>  <Rbt.Executable>
rbdock ($Id: //depot/dev/client3/rdock/2013.1/src/exe/rbdock.cxx#4 $)

>  <Rbt.Library>
libRbt.so (2013.1, Build901 2013/11/27)

>  <Rbt.Parameter_File>
/export/apps/rDock/src/rDock_2013.1_src/data/scripts/dock_solv.prm

>  <Rbt.Receptor>
prm/pocket_docking_3.prm

>  <SCORE>
-14.1059

>  <SCORE.INTER>
-14.1059

>  <SCORE.INTER.CONST>
1

>  <SCORE.INTER.POLAR>
0

>  <SCORE.INTER.ROT>
0

>  <SCORE.INTER.SOLV>
19.007

>  <SCORE.INTER.VDW>
-19.3396

>  <SCORE.INTER.norm>
-1.17549

>  <SCORE.INTRA>
0

>  <SCORE.INTRA.DIHEDRAL>
0

>  <SCORE.INTRA.DIHEDRAL.0>
0

>  <SCORE.INTRA.POLAR>
0

>  <SCORE.INTRA.POLAR.0>
0

>  <SCORE.INTRA.REPUL>
0

>  <SCORE.INTRA.REPUL.0>
0

>  <SCORE.INTRA.SOLV>
0

>  <SCORE.INTRA.SOLV.lig_0>
-48.1583

>  <SCORE.INTRA.VDW>
0

>  <SCORE.INTRA.VDW.0>
0

>  <SCORE.INTRA.norm>
0

>  <SCORE.RESTR>
0

>  <SCORE.RESTR.CAVITY>
0

>  <SCORE.RESTR.norm>
0

>  <SCORE.SYSTEM>
0

>  <SCORE.SYSTEM.CONST>
0

>  <SCORE.SYSTEM.DIHEDRAL>
0

>  <SCORE.SYSTEM.SOLV>
0

>  <SCORE.SYSTEM.norm>
0

>  <SCORE.heavy>
12

>  <SCORE.norm>
-1.17549

>  <RMSD>
0.595

$$$$
ligand
 OpenBabel02271912143D
libRbt.so/2013.1/901 2013/11/27
 12 13  0  0  0  0  0  0  0  0999 V2000
    6.6171   17.6164    1.7639 C   0  0  0  0  0  0  0  0  0  0  0  0
    5.2925   16.4903    3.3171 C   0  0  0  0  0  0  0  0  0  0  0  0
    7.0607   17.7322    0.5155 N   0  0  0  0  0  0  0  0  0  0  0  0
    4.4628   15.5026    3.6707 N   0  0  0  0  0  0  0  0  0  0  0  0
    5.7706   16.6093    2.0713 N   0  0  0  0  0  0  0  0  0  0  0  0
    6.9964   18.5196    2.6951 N   0  0  0  0  0  0  0  0  0  0  0  0
    5.6023   18.2054    6.5774 N   0  0  0  0  0  0  0  0  0  0  0  0
    6.4786   19.2416    6.2198 C   0  0  0  0  0  0  0  0  0  0  0  0
    6.9578   19.3358    4.8923 N   0  0  0  0  0  0  0  0  0  0  0  0
    6.5484   18.4354    3.9727 C   0  0  0  0  0  0  0  0  0  0  0  0
    5.6665   17.4038    4.3103 C   0  0  0  0  0  0  0  0  0  0  0  0
    5.1816   17.2713    5.6101 C   0  0  0  0  0  0  0  0  0  0  0  0
  1  3  1  0  0  0  0
  1  5  1  0  0  0  0
  1  6  2  0  0  0  0
  2  5  2  0  0  0  0
  2 11  1  0  0  0  0
  2  4  1  0  0  0  0
  6 10  1  0  0  0  0
  7  8  2  0  0  0  0
  7 12  1  0  0  0  0
  8  9  1  0  0  0  0
  9 10  2  0  0  0  0
 10 11  1  0  0  0  0
 11 12  2  0  0  0  0
M  END
>  <CHROM.1>
6.05977470,17.69342959,3.77085125,-1.42134536,0.89322771,1.18750179

>  <Name>
ligand

>  <RI>
0

>  <Rbt.Current_Directory>
/home/itssahil/PROJECTS/Mol_Feturizer/Test_systems_manuscript/rnas/4lx5

>  <Rbt.Executable>
rbdock ($Id: //depot/dev/client3/rdock/2013.1/src/exe/rbdock.cxx#4 $)

>  <Rbt.Library>
libRbt.so (2013.1, Build901 2013/11/27)

>  <Rbt.Parameter_File>
/export/apps/rDock/src/rDock_2013.1_src/data/scripts/dock_solv.prm

>  <Rbt.Receptor>
prm/pocket_docking_4.prm

>  <SCORE>
-14.0374

>  <SCORE.INTER>
-14.0374

>  <SCORE.INTER.CONST>
1

>  <SCORE.INTER.POLAR>
0

>  <SCORE.INTER.ROT>
0

>  <SCORE.INTER.SOLV>
18.2171

>  <SCORE.INTER.VDW>
-19.0307

>  <SCORE.INTER.norm>
-1.16979

>  <SCORE.INTRA>
0

>  <SCORE.INTRA.DIHEDRAL>
0

>  <SCORE.INTRA.DIHEDRAL.0>
0

>  <SCORE.INTRA.POLAR>
0

>  <SCORE.INTRA.POLAR.0>
0

>  <SCORE.INTRA.REPUL>
0

>  <SCORE.INTRA.REPUL.0>
0

>  <SCORE.INTRA.SOLV>
0

>  <SCORE.INTRA.SOLV.lig_0>
-48.1583

>  <SCORE.INTRA.VDW>
0

>  <SCORE.INTRA.VDW.0>
0

>  <SCORE.INTRA.norm>
0

>  <SCORE.RESTR>
0

>  <SCORE.RESTR.CAVITY>
0

>  <SCORE.RESTR.norm>
0

>  <SCORE.SYSTEM>
0

>  <SCORE.SYSTEM.CONST>
0

>  <SCORE.SYSTEM.DIHEDRAL>
0

>  <SCORE.SYSTEM.SOLV>
0

>  <SCORE.SYSTEM.norm>
0

>  <SCORE.heavy>
12

>  <SCORE.norm>
-1.16979

>  <RMSD>
0.595

$$$$
ligand
 OpenBabel02271912143D
libRbt.so/2013.1/901 2013/11/27
 12 13  0  0  0  0  0  0  0  0999 V2000
    6.6322   17.6275    1.8293 C   0  0  0  0  0  0  0  0  0  0  0  0
    5.3671   16.4013    3.3561 C   0  0  0  0  0  0  0  0  0  0  0  0
    7.0808   17.7849    0.5872 N   0  0  0  0  0  0  0  0  0  0  0  0
    4.5999   15.3581    3.6906 N   0  0  0  0  0  0  0  0  0  0  0  0
    5.8500   16.5642    2.1171 N   0  0  0  0  0  0  0  0  0  0  0  0
    6.9415   18.5437    2.7734 N   0  0  0  0  0  0  0  0  0  0  0  0
    5.5287   18.0991    6.6362 N   0  0  0  0  0  0  0  0  0  0  0  0
    6.3393   19.1938    6.2987 C   0  0  0  0  0  0  0  0  0  0  0  0
    6.8258   19.3328    4.9778 N   0  0  0  0  0  0  0  0  0  0  0  0
    6.4861   18.4173    4.0448 C   0  0  0  0  0  0  0  0  0  0  0  0
    5.6698   17.3269    4.3624 C   0  0  0  0  0  0  0  0  0  0  0  0
    5.1804   17.1496    5.6552 C   0  0  0  0  0  0  0  0  0  0  0  0
  1  3  1  0  0  0  0
  1  5  1  0  0  0  0
  1  6  2  0  0  0  0
  2  5  2  0  0  0  0
  2 11  1  0  0  0  0
  2  4  1  0  0  0  0
  6 10  1  0  0  0  0
  7  8  2  0  0  0  0
  7 12  1  0  0  0  0
  8  9  1  0  0  0  0
  9 10  2  0  0  0  0
 10 11  1  0  0  0  0
 11 12  2  0  0  0  0
M  END
>  <CHROM.1>
6.04917005,17.64717315,3.83026885,-1.36206879,0.94895125,1.15029639

>  <Name>
ligand

>  <RI>
0

>  <Rbt.Current_Directory>
/home/itssahil/PROJECTS/Mol_Feturizer/Test_systems_manuscript/rnas/4lx5

>  <Rbt.Executable>
rbdock ($Id: //depot/dev/client3/rdock/2013.1/src/exe/rbdock.cxx#4 $)

>  <Rbt.Library>
libRbt.so (2013.1, Build901 2013/11/27)

>  <Rbt.Parameter_File>
/export/apps/rDock/src/rDock_2013.1_src/data/scripts/dock_solv.prm

>  <Rbt.Receptor>
prm/pocket_docking_6.prm

>  <SCORE>
-14.1059

>  <SCORE.INTER>
-14.1059

>  <SCORE.INTER.CONST>
1

>  <SCORE.INTER.POLAR>
0

>  <SCORE.INTER.ROT>
0

>  <SCORE.INTER.SOLV>
19.0454

>  <SCORE.INTER.VDW>
-19.3524

>  <SCORE.INTER.norm>
-1.17549

>  <SCORE.INTRA>
0

>  <SCORE.INTRA.DIHEDRAL>
0

>  <SCORE.INTRA.DIHEDRAL.0>
0

>  <SCORE.INTRA.POLAR>
0

>  <SCORE.INTRA.POLAR.0>
0

>  <SCORE.INTRA.REPUL>
0

>  <SCORE.INTRA.REPUL.0>
0

>  <SCORE.INTRA.SOLV>
0

>  <SCORE.INTRA.SOLV.lig_0>
-48.1583

>  <SCORE.INTRA.VDW>
0

>  <SCORE.INTRA.VDW.0>
0

>  <SCORE.INTRA.norm>
0

>  <SCORE.RESTR>
0

>  <SCORE.RESTR.CAVITY>
0

>  <SCORE.RESTR.norm>
0

>  <SCORE.SYSTEM>
0

>  <SCORE.SYSTEM.CONST>
0

>  <SCORE.SYSTEM.DIHEDRAL>
0

>  <SCORE.SYSTEM.SOLV>
0

>  <SCORE.SYSTEM.norm>
0

>  <SCORE.heavy>
12

>  <SCORE.norm>
-1.17549

>  <RMSD>
0.595

$$$$
ligand
 OpenBabel02271912143D
libRbt.so/2013.1/901 2013/11/27
 12 13  0  0  0  0  0  0  0  0999 V2000
    6.6753   17.6159    1.8380 C   0  0  0  0  0  0  0  0  0  0  0  0
    5.4143   16.3852    3.3646 C   0  0  0  0  0  0  0  0  0  0  0  0
    7.1345   17.7676    0.5991 N   0  0  0  0  0  0  0  0  0  0  0  0
    4.6607   15.3331    3.7022 N   0  0  0  0  0  0  0  0  0  0  0  0
    5.9076   16.5430    2.1290 N   0  0  0  0  0  0  0  0  0  0  0  0
    6.9596   18.5470    2.7755 N   0  0  0  0  0  0  0  0  0  0  0  0
    5.5133   18.1199    6.6278 N   0  0  0  0  0  0  0  0  0  0  0  0
    6.3094   19.2242    6.2871 C   0  0  0  0  0  0  0  0  0  0  0  0
    6.8075   19.3573    4.9699 N   0  0  0  0  0  0  0  0  0  0  0  0
    6.4928   18.4265    4.0434 C   0  0  0  0  0  0  0  0  0  0  0  0
    5.6912   17.3262    4.3640 C   0  0  0  0  0  0  0  0  0  0  0  0
    5.1910   17.1545    5.6534 C   0  0  0  0  0  0  0  0  0  0  0  0
  1  3  1  0  0  0  0
  1  5  1  0  0  0  0
  1  6  2  0  0  0  0
  2  5  2  0  0  0  0
  2 11  1  0  0  0  0
  2  4  1  0  0  0  0
  6 10  1  0  0  0  0
  7  8  2  0  0  0  0
  7 12  1  0  0  0  0
  8  9  1  0  0  0  0
  9 10  2  0  0  0  0
 10 11  1  0  0  0  0
 11 12  2  0  0  0  0
M  END
>  <CHROM.1>
6.07084010,17.64706247,3.83248037,-1.33352114,0.95934790,1.11638691

>  <Name>
ligand

>  <RI>
0

>  <Rbt.Current_Directory>
/home/itssahil/PROJECTS/Mol_Feturizer/Test_systems_manuscript/rnas/4lx5

>  <Rbt.Executable>
rbdock ($Id: //depot/dev/client3/rdock/2013.1/src/exe/rbdock.cxx#4 $)

>  <Rbt.Library>
libRbt.so (2013.1, Build901 2013/11/27)

>  <Rbt.Parameter_File>
/export/apps/rDock/src/rDock_2013.1_src/data/scripts/dock_solv.prm

>  <Rbt.Receptor>
prm/blind_docking_80.prm

>  <SCORE>
-14.1152

>  <SCORE.INTER>
-14.1152

>  <SCORE.INTER.CONST>
1

>  <SCORE.INTER.POLAR>
0

>  <SCORE.INTER.ROT>
0

>  <SCORE.INTER.SOLV>
19.3212

>  <SCORE.INTER.VDW>
-19.4505

>  <SCORE.INTER.norm>
-1.17627

>  <SCORE.INTRA>
0

>  <SCORE.INTRA.DIHEDRAL>
0

>  <SCORE.INTRA.DIHEDRAL.0>
0

>  <SCORE.INTRA.POLAR>
0

>  <SCORE.INTRA.POLAR.0>
0

>  <SCORE.INTRA.REPUL>
0

>  <SCORE.INTRA.REPUL.0>
0

>  <SCORE.INTRA.SOLV>
0

>  <SCORE.INTRA.SOLV.lig_0>
-48.1583

>  <SCORE.INTRA.VDW>
0

>  <SCORE.INTRA.VDW.0>
0

>  <SCORE.INTRA.norm>
0

>  <SCORE.RESTR>
0

>  <SCORE.RESTR.CAVITY>
0

>  <SCORE.RESTR.norm>
0

>  <SCORE.SYSTEM>
0

>  <SCORE.SYSTEM.CONST>
0

>  <SCORE.SYSTEM.DIHEDRAL>
0

>  <SCORE.SYSTEM.SOLV>
0

>  <SCORE.SYSTEM.norm>
0

>  <SCORE.heavy>
12

>  <SCORE.norm>
-1.17627

>  <RMSD>
0.597

$$$$
ligand
 OpenBabel02271912143D
libRbt.so/2013.1/901 2013/11/27
 12 13  0  0  0  0  0  0  0  0999 V2000
    6.6467   17.6163    1.8303 C   0  0  0  0  0  0  0  0  0  0  0  0
    5.3837   16.3979    3.3649 C   0  0  0  0  0  0  0  0  0  0  0  0
    7.0969   17.7653    0.5877 N   0  0  0  0  0  0  0  0  0  0  0  0
    4.6198   15.3545    3.7066 N   0  0  0  0  0  0  0  0  0  0  0  0
    5.8680   16.5525    2.1255 N   0  0  0  0  0  0  0  0  0  0  0  0
    6.9510   18.5414    2.7674 N   0  0  0  0  0  0  0  0  0  0  0  0
    5.5333   18.1229    6.6313 N   0  0  0  0  0  0  0  0  0  0  0  0
    6.3404   19.2179    6.2863 C   0  0  0  0  0  0  0  0  0  0  0  0
    6.8286   19.3480    4.9651 N   0  0  0  0  0  0  0  0  0  0  0  0
    6.4939   18.4236    4.0391 C   0  0  0  0  0  0  0  0  0  0  0  0
    5.6812   17.3328    4.3641 C   0  0  0  0  0  0  0  0  0  0  0  0
    5.1903   17.1642    5.6575 C   0  0  0  0  0  0  0  0  0  0  0  0
  1  3  1  0  0  0  0
  1  5  1  0  0  0  0
  1  6  2  0  0  0  0
  2  5  2  0  0  0  0
  2 11  1  0  0  0  0
  2  4  1  0  0  0  0
  6 10  1  0  0  0  0
  7  8  2  0  0  0  0
  7 12  1  0  0  0  0
  8  9  1  0  0  0  0
  9 10  2  0  0  0  0
 10 11  1  0  0  0  0
 11 12  2  0  0  0  0
M  END
>  <CHROM.1>
6.06023275,17.65011324,3.83005941,-1.35674582,0.95167622,1.13782709

>  <Name>
ligand

>  <RI>
0

>  <Rbt.Current_Directory>
/home/itssahil/PROJECTS/Mol_Feturizer/Test_systems_manuscript/rnas/4lx5

>  <Rbt.Executable>
rbdock ($Id: //depot/dev/client3/rdock/2013.1/src/exe/rbdock.cxx#4 $)

>  <Rbt.Library>
libRbt.so (2013.1, Build901 2013/11/27)

>  <Rbt.Parameter_File>
/export/apps/rDock/src/rDock_2013.1_src/data/scripts/dock_solv.prm

>  <Rbt.Receptor>
prm/pocket_docking_4.prm

>  <SCORE>
-14.1089

>  <SCORE.INTER>
-14.1089

>  <SCORE.INTER.CONST>
1

>  <SCORE.INTER.POLAR>
0

>  <SCORE.INTER.ROT>
0

>  <SCORE.INTER.SOLV>
19.1193

>  <SCORE.INTER.VDW>
-19.379

>  <SCORE.INTER.norm>
-1.17574

>  <SCORE.INTRA>
0

>  <SCORE.INTRA.DIHEDRAL>
0

>  <SCORE.INTRA.DIHEDRAL.0>
0

>  <SCORE.INTRA.POLAR>
0

>  <SCORE.INTRA.POLAR.0>
0

>  <SCORE.INTRA.REPUL>
0

>  <SCORE.INTRA.REPUL.0>
0

>  <SCORE.INTRA.SOLV>
0

>  <SCORE.INTRA.SOLV.lig_0>
-48.1583

>  <SCORE.INTRA.VDW>
0

>  <SCORE.INTRA.VDW.0>
0

>  <SCORE.INTRA.norm>
0

>  <SCORE.RESTR>
0

>  <SCORE.RESTR.CAVITY>
0

>  <SCORE.RESTR.norm>
0

>  <SCORE.SYSTEM>
0

>  <SCORE.SYSTEM.CONST>
0

>  <SCORE.SYSTEM.DIHEDRAL>
0

>  <SCORE.SYSTEM.SOLV>
0

>  <SCORE.SYSTEM.norm>
0

>  <SCORE.heavy>
12

>  <SCORE.norm>
-1.17574

>  <RMSD>
0.600

$$$$
ligand
 OpenBabel02271912143D
libRbt.so/2013.1/901 2013/11/27
 12 13  0  0  0  0  0  0  0  0999 V2000
    6.6533   17.6355    1.8531 C   0  0  0  0  0  0  0  0  0  0  0  0
    5.3833   16.3932    3.3626 C   0  0  0  0  0  0  0  0  0  0  0  0
    7.1185   17.7976    0.6177 N   0  0  0  0  0  0  0  0  0  0  0  0
    4.6265   15.3392    3.6873 N   0  0  0  0  0  0  0  0  0  0  0  0
    5.8826   16.5613    2.1309 N   0  0  0  0  0  0  0  0  0  0  0  0
    6.9347   18.5577    2.8002 N   0  0  0  0  0  0  0  0  0  0  0  0
    5.4698   18.0983    6.6418 N   0  0  0  0  0  0  0  0  0  0  0  0
    6.2693   19.2044    6.3146 C   0  0  0  0  0  0  0  0  0  0  0  0
    6.7737   19.3485    5.0011 N   0  0  0  0  0  0  0  0  0  0  0  0
    6.4618   18.4266    4.0647 C   0  0  0  0  0  0  0  0  0  0  0  0
    5.6570   17.3247    4.3717 C   0  0  0  0  0  0  0  0  0  0  0  0
    5.1506   17.1423    5.6572 C   0  0  0  0  0  0  0  0  0  0  0  0
  1  3  1  0  0  0  0
  1  5  1  0  0  0  0
  1  6  2  0  0  0  0
  2  5  2  0  0  0  0
  2 11  1  0  0  0  0
  2  4  1  0  0  0  0
  6 10  1  0  0  0  0
  7  8  2  0  0  0  0
  7 12  1  0  0  0  0
  8  9  1  0  0  0  0
  9 10  2  0  0  0  0
 10 11  1  0  0  0  0
 11 12  2  0  0  0  0
M  END
>  <CHROM.1>
6.03963308,17.64972007,3.84489516,-1.32746900,0.95590802,1.12042710

>  <Name>
ligand

>  <RI>
0

>  <Rbt.Current_Directory>
/home/itssahil/PROJECTS/Mol_Feturizer/Test_systems_manuscript/rnas/4lx5

>  <Rbt.Executable>
rbdock ($Id: //depot/dev/client3/rdock/2013.1/src/exe/rbdock.cxx#4 $)

>  <Rbt.Library>
libRbt.so (2013.1, Build901 2013/11/27)

>  <Rbt.Parameter_File>
/export/apps/rDock/src/rDock_2013.1_src/data/scripts/dock_solv.prm

>  <Rbt.Receptor>
prm/pocket_docking_6.prm

>  <SCORE>
-14.0842

>  <SCORE.INTER>
-14.0842

>  <SCORE.INTER.CONST>
1

>  <SCORE.INTER.POLAR>
0

>  <SCORE.INTER.ROT>
0

>  <SCORE.INTER.SOLV>
19.2256

>  <SCORE.INTER.VDW>
-19.398

>  <SCORE.INTER.norm>
-1.17368

>  <SCORE.INTRA>
0

>  <SCORE.INTRA.DIHEDRAL>
0

>  <SCORE.INTRA.DIHEDRAL.0>
0

>  <SCORE.INTRA.POLAR>
0

>  <SCORE.INTRA.POLAR.0>
0

>  <SCORE.INTRA.REPUL>
0

>  <SCORE.INTRA.REPUL.0>
0

>  <SCORE.INTRA.SOLV>
0

>  <SCORE.INTRA.SOLV.lig_0>
-48.1583

>  <SCORE.INTRA.VDW>
0

>  <SCORE.INTRA.VDW.0>
0

>  <SCORE.INTRA.norm>
0

>  <SCORE.RESTR>
0

>  <SCORE.RESTR.CAVITY>
0

>  <SCORE.RESTR.norm>
0

>  <SCORE.SYSTEM>
0

>  <SCORE.SYSTEM.CONST>
0

>  <SCORE.SYSTEM.DIHEDRAL>
0

>  <SCORE.SYSTEM.SOLV>
0

>  <SCORE.SYSTEM.norm>
0

>  <SCORE.heavy>
12

>  <SCORE.norm>
-1.17368

>  <RMSD>
0.602

$$$$
ligand
 OpenBabel02271912143D
libRbt.so/2013.1/901 2013/11/27
 12 13  0  0  0  0  0  0  0  0999 V2000
    6.6693   17.6163    1.8382 C   0  0  0  0  0  0  0  0  0  0  0  0
    5.3973   16.4034    3.3697 C   0  0  0  0  0  0  0  0  0  0  0  0
    7.1266   17.7611    0.5977 N   0  0  0  0  0  0  0  0  0  0  0  0
    4.6312   15.3613    3.7106 N   0  0  0  0  0  0  0  0  0  0  0  0
    5.8887   16.5537    2.1325 N   0  0  0  0  0  0  0  0  0  0  0  0
    6.9685   18.5445    2.7740 N   0  0  0  0  0  0  0  0  0  0  0  0
    5.5288   18.1392    6.6311 N   0  0  0  0  0  0  0  0  0  0  0  0
    6.3381   19.2329    6.2870 C   0  0  0  0  0  0  0  0  0  0  0  0
    6.8338   19.3584    4.9682 N   0  0  0  0  0  0  0  0  0  0  0  0
    6.5042   18.4311    4.0434 C   0  0  0  0  0  0  0  0  0  0  0  0
    5.6894   17.3415    4.3674 C   0  0  0  0  0  0  0  0  0  0  0  0
    5.1910   17.1774    5.6586 C   0  0  0  0  0  0  0  0  0  0  0  0
  1  3  1  0  0  0  0
  1  5  1  0  0  0  0
  1  6  2  0  0  0  0
  2  5  2  0  0  0  0
  2 11  1  0  0  0  0
  2  4  1  0  0  0  0
  6 10  1  0  0  0  0
  7  8  2  0  0  0  0
  7 12  1  0  0  0  0
  8  9  1  0  0  0  0
  9 10  2  0  0  0  0
 10 11  1  0  0  0  0
 11 12  2  0  0  0  0
M  END
>  <CHROM.1>
6.07148725,17.65696054,3.83449481,-1.34806537,0.94905040,1.12740688

>  <Name>
ligand

>  <RI>
0

>  <Rbt.Current_Directory>
/home/itssahil/PROJECTS/Mol_Feturizer/Test_systems_manuscript/rnas/4lx5

>  <Rbt.Executable>
rbdock ($Id: //depot/dev/client3/rdock/2013.1/src/exe/rbdock.cxx#4 $)

>  <Rbt.Library>
libRbt.so (2013.1, Build901 2013/11/27)

>  <Rbt.Parameter_File>
/export/apps/rDock/src/rDock_2013.1_src/data/scripts/dock_solv.prm

>  <Rbt.Receptor>
prm/pocket_docking_3.prm

>  <SCORE>
-14.1019

>  <SCORE.INTER>
-14.1019

>  <SCORE.INTER.CONST>
1

>  <SCORE.INTER.POLAR>
0

>  <SCORE.INTER.ROT>
0

>  <SCORE.INTER.SOLV>
19.1693

>  <SCORE.INTER.VDW>
-19.3911

>  <SCORE.INTER.norm>
-1.17516

>  <SCORE.INTRA>
0

>  <SCORE.INTRA.DIHEDRAL>
0

>  <SCORE.INTRA.DIHEDRAL.0>
0

>  <SCORE.INTRA.POLAR>
0

>  <SCORE.INTRA.POLAR.0>
0

>  <SCORE.INTRA.REPUL>
0

>  <SCORE.INTRA.REPUL.0>
0

>  <SCORE.INTRA.SOLV>
0

>  <SCORE.INTRA.SOLV.lig_0>
-48.1583

>  <SCORE.INTRA.VDW>
0

>  <SCORE.INTRA.VDW.0>
0

>  <SCORE.INTRA.norm>
0

>  <SCORE.RESTR>
0

>  <SCORE.RESTR.CAVITY>
0

>  <SCORE.RESTR.norm>
0

>  <SCORE.SYSTEM>
0

>  <SCORE.SYSTEM.CONST>
0

>  <SCORE.SYSTEM.DIHEDRAL>
0

>  <SCORE.SYSTEM.SOLV>
0

>  <SCORE.SYSTEM.norm>
0

>  <SCORE.heavy>
12

>  <SCORE.norm>
-1.17516

>  <RMSD>
0.605

$$$$
ligand
 OpenBabel02271912143D
libRbt.so/2013.1/901 2013/11/27
 12 13  0  0  0  0  0  0  0  0999 V2000
    6.6558   17.6343    1.8593 C   0  0  0  0  0  0  0  0  0  0  0  0
    5.3738   16.4018    3.3668 C   0  0  0  0  0  0  0  0  0  0  0  0
    7.1265   17.7913    0.6254 N   0  0  0  0  0  0  0  0  0  0  0  0
    4.6105   15.3523    3.6909 N   0  0  0  0  0  0  0  0  0  0  0  0
    5.8786   16.5645    2.1366 N   0  0  0  0  0  0  0  0  0  0  0  0
    6.9381   18.5573    2.8054 N   0  0  0  0  0  0  0  0  0  0  0  0
    5.4561   18.1139    6.6424 N   0  0  0  0  0  0  0  0  0  0  0  0
    6.2623   19.2152    6.3158 C   0  0  0  0  0  0  0  0  0  0  0  0
    6.7725   19.3538    5.0039 N   0  0  0  0  0  0  0  0  0  0  0  0
    6.4597   18.4313    4.0684 C   0  0  0  0  0  0  0  0  0  0  0  0
    5.6482   17.3342    4.3748 C   0  0  0  0  0  0  0  0  0  0  0  0
    5.1359   17.1572    5.6588 C   0  0  0  0  0  0  0  0  0  0  0  0
  1  3  1  0  0  0  0
  1  5  1  0  0  0  0
  1  6  2  0  0  0  0
  2  5  2  0  0  0  0
  2 11  1  0  0  0  0
  2  4  1  0  0  0  0
  6 10  1  0  0  0  0
  7  8  2  0  0  0  0
  7 12  1  0  0  0  0
  8  9  1  0  0  0  0
  9 10  2  0  0  0  0
 10 11  1  0  0  0  0
 11 12  2  0  0  0  0
M  END
>  <CHROM.1>
6.03446893,17.65611967,3.84875665,-1.32523869,0.94973514,1.11633318

>  <Name>
ligand

>  <RI>
0

>  <Rbt.Current_Directory>
/home/itssahil/PROJECTS/Mol_Feturizer/Test_systems_manuscript/rnas/4lx5

>  <Rbt.Executable>
rbdock ($Id: //depot/dev/client3/rdock/2013.1/src/exe/rbdock.cxx#4 $)

>  <Rbt.Library>
libRbt.so (2013.1, Build901 2013/11/27)

>  <Rbt.Parameter_File>
/export/apps/rDock/src/rDock_2013.1_src/data/scripts/dock_solv.prm

>  <Rbt.Receptor>
prm/blind_docking_60.prm

>  <SCORE>
-14.0703

>  <SCORE.INTER>
-14.0703

>  <SCORE.INTER.CONST>
1

>  <SCORE.INTER.POLAR>
0

>  <SCORE.INTER.ROT>
0

>  <SCORE.INTER.SOLV>
19.1608

>  <SCORE.INTER.VDW>
-19.3672

>  <SCORE.INTER.norm>
-1.17253

>  <SCORE.INTRA>
0

>  <SCORE.INTRA.DIHEDRAL>
0

>  <SCORE.INTRA.DIHEDRAL.0>
0

>  <SCORE.INTRA.POLAR>
0

>  <SCORE.INTRA.POLAR.0>
0

>  <SCORE.INTRA.REPUL>
0

>  <SCORE.INTRA.REPUL.0>
0

>  <SCORE.INTRA.SOLV>
0

>  <SCORE.INTRA.SOLV.lig_0>
-48.1583

>  <SCORE.INTRA.VDW>
0

>  <SCORE.INTRA.VDW.0>
0

>  <SCORE.INTRA.norm>
0

>  <SCORE.RESTR>
0

>  <SCORE.RESTR.CAVITY>
0

>  <SCORE.RESTR.norm>
0

>  <SCORE.SYSTEM>
0

>  <SCORE.SYSTEM.CONST>
0

>  <SCORE.SYSTEM.DIHEDRAL>
0

>  <SCORE.SYSTEM.SOLV>
0

>  <SCORE.SYSTEM.norm>
0

>  <SCORE.heavy>
12

>  <SCORE.norm>
-1.17253

>  <RMSD>
0.609

$$$$
ligand
 OpenBabel02271912143D
libRbt.so/2013.1/901 2013/11/27
 12 13  0  0  0  0  0  0  0  0999 V2000
    6.6740   17.6561    1.8611 C   0  0  0  0  0  0  0  0  0  0  0  0
    5.3947   16.4148    3.3636 C   0  0  0  0  0  0  0  0  0  0  0  0
    7.1444   17.8190    0.6278 N   0  0  0  0  0  0  0  0  0  0  0  0
    4.6336   15.3624    3.6835 N   0  0  0  0  0  0  0  0  0  0  0  0
    5.8991   16.5836    2.1341 N   0  0  0  0  0  0  0  0  0  0  0  0
    6.9544   18.5758    2.8109 N   0  0  0  0  0  0  0  0  0  0  0  0
    5.4734   18.1139    6.6460 N   0  0  0  0  0  0  0  0  0  0  0  0
    6.2773   19.2182    6.3240 C   0  0  0  0  0  0  0  0  0  0  0  0
    6.7872   19.3632    5.0126 N   0  0  0  0  0  0  0  0  0  0  0  0
    6.4763   18.4438    4.0734 C   0  0  0  0  0  0  0  0  0  0  0  0
    5.6671   17.3438    4.3754 C   0  0  0  0  0  0  0  0  0  0  0  0
    5.1552   17.1605    5.6586 C   0  0  0  0  0  0  0  0  0  0  0  0
  1  3  1  0  0  0  0
  1  5  1  0  0  0  0
  1  6  2  0  0  0  0
  2  5  2  0  0  0  0
  2 11  1  0  0  0  0
  2  4  1  0  0  0  0
  6 10  1  0  0  0  0
  7  8  2  0  0  0  0
  7 12  1  0  0  0  0
  8  9  1  0  0  0  0
  9 10  2  0  0  0  0
 10 11  1  0  0  0  0
 11 12  2  0  0  0  0
M  END
>  <CHROM.1>
6.05270145,17.66858444,3.85060508,-1.32365214,0.95165533,1.11906927

>  <Name>
ligand

>  <RI>
0

>  <Rbt.Current_Directory>
/home/itssahil/PROJECTS/Mol_Feturizer/Test_systems_manuscript/rnas/4lx5

>  <Rbt.Executable>
rbdock ($Id: //depot/dev/client3/rdock/2013.1/src/exe/rbdock.cxx#4 $)

>  <Rbt.Library>
libRbt.so (2013.1, Build901 2013/11/27)

>  <Rbt.Parameter_File>
/export/apps/rDock/src/rDock_2013.1_src/data/scripts/dock_solv.prm

>  <Rbt.Receptor>
prm/blind_docking_40.prm

>  <SCORE>
-14.1066

>  <SCORE.INTER>
-14.1066

>  <SCORE.INTER.CONST>
1

>  <SCORE.INTER.POLAR>
0

>  <SCORE.INTER.ROT>
0

>  <SCORE.INTER.SOLV>
19.2521

>  <SCORE.INTER.VDW>
-19.4218

>  <SCORE.INTER.norm>
-1.17555

>  <SCORE.INTRA>
0

>  <SCORE.INTRA.DIHEDRAL>
0

>  <SCORE.INTRA.DIHEDRAL.0>
0

>  <SCORE.INTRA.POLAR>
0

>  <SCORE.INTRA.POLAR.0>
0

>  <SCORE.INTRA.REPUL>
0

>  <SCORE.INTRA.REPUL.0>
0

>  <SCORE.INTRA.SOLV>
0

>  <SCORE.INTRA.SOLV.lig_0>
-48.1583

>  <SCORE.INTRA.VDW>
0

>  <SCORE.INTRA.VDW.0>
0

>  <SCORE.INTRA.norm>
0

>  <SCORE.RESTR>
0

>  <SCORE.RESTR.CAVITY>
0

>  <SCORE.RESTR.norm>
0

>  <SCORE.SYSTEM>
0

>  <SCORE.SYSTEM.CONST>
0

>  <SCORE.SYSTEM.DIHEDRAL>
0

>  <SCORE.SYSTEM.SOLV>
0

>  <SCORE.SYSTEM.norm>
0

>  <SCORE.heavy>
12

>  <SCORE.norm>
-1.17555

>  <RMSD>
0.612

$$$$
ligand
 OpenBabel02271912143D
libRbt.so/2013.1/901 2013/11/27
 12 13  0  0  0  0  0  0  0  0999 V2000
    6.6934   17.6712    1.8746 C   0  0  0  0  0  0  0  0  0  0  0  0
    5.3796   16.4431    3.3580 C   0  0  0  0  0  0  0  0  0  0  0  0
    7.1733   17.8365    0.6452 N   0  0  0  0  0  0  0  0  0  0  0  0
    4.5939   15.4046    3.6633 N   0  0  0  0  0  0  0  0  0  0  0  0
    5.8936   16.6134    2.1326 N   0  0  0  0  0  0  0  0  0  0  0  0
    6.9896   18.5745    2.8353 N   0  0  0  0  0  0  0  0  0  0  0  0
    5.4802   18.1056    6.6585 N   0  0  0  0  0  0  0  0  0  0  0  0
    6.3099   19.1951    6.3518 C   0  0  0  0  0  0  0  0  0  0  0  0
    6.8292   19.3424    5.0444 N   0  0  0  0  0  0  0  0  0  0  0  0
    6.5026   18.4400    4.0941 C   0  0  0  0  0  0  0  0  0  0  0  0
    5.6677   17.3551    4.3807 C   0  0  0  0  0  0  0  0  0  0  0  0
    5.1457   17.1699    5.6596 C   0  0  0  0  0  0  0  0  0  0  0  0
  1  3  1  0  0  0  0
  1  5  1  0  0  0  0
  1  6  2  0  0  0  0
  2  5  2  0  0  0  0
  2 11  1  0  0  0  0
  2  4  1  0  0  0  0
  6 10  1  0  0  0  0
  7  8  2  0  0  0  0
  7 12  1  0  0  0  0
  8  9  1  0  0  0  0
  9 10  2  0  0  0  0
 10 11  1  0  0  0  0
 11 12  2  0  0  0  0
M  END
>  <CHROM.1>
6.06296286,17.67674812,3.86120762,-1.33257930,0.92955320,1.13677429

>  <Name>
ligand

>  <RI>
0

>  <Rbt.Current_Directory>
/home/itssahil/PROJECTS/Mol_Feturizer/Test_systems_manuscript/rnas/4lx5

>  <Rbt.Executable>
rbdock ($Id: //depot/dev/client3/rdock/2013.1/src/exe/rbdock.cxx#4 $)

>  <Rbt.Library>
libRbt.so (2013.1, Build901 2013/11/27)

>  <Rbt.Parameter_File>
/export/apps/rDock/src/rDock_2013.1_src/data/scripts/dock_solv.prm

>  <Rbt.Receptor>
prm/pocket_docking_6.prm

>  <SCORE>
-14.0742

>  <SCORE.INTER>
-14.0742

>  <SCORE.INTER.CONST>
1

>  <SCORE.INTER.POLAR>
0

>  <SCORE.INTER.ROT>
0

>  <SCORE.INTER.SOLV>
19.0652

>  <SCORE.INTER.VDW>
-19.3379

>  <SCORE.INTER.norm>
-1.17285

>  <SCORE.INTRA>
0

>  <SCORE.INTRA.DIHEDRAL>
0

>  <SCORE.INTRA.DIHEDRAL.0>
0

>  <SCORE.INTRA.POLAR>
0

>  <SCORE.INTRA.POLAR.0>
0

>  <SCORE.INTRA.REPUL>
0

>  <SCORE.INTRA.REPUL.0>
0

>  <SCORE.INTRA.SOLV>
0

>  <SCORE.INTRA.SOLV.lig_0>
-48.1583

>  <SCORE.INTRA.VDW>
0

>  <SCORE.INTRA.VDW.0>
0

>  <SCORE.INTRA.norm>
0

>  <SCORE.RESTR>
0

>  <SCORE.RESTR.CAVITY>
0

>  <SCORE.RESTR.norm>
0

>  <SCORE.SYSTEM>
0

>  <SCORE.SYSTEM.CONST>
0

>  <SCORE.SYSTEM.DIHEDRAL>
0

>  <SCORE.SYSTEM.SOLV>
0

>  <SCORE.SYSTEM.norm>
0

>  <SCORE.heavy>
12

>  <SCORE.norm>
-1.17285

>  <RMSD>
0.618

$$$$
ligand
 OpenBabel02271912143D
libRbt.so/2013.1/901 2013/11/27
 12 13  0  0  0  0  0  0  0  0999 V2000
    6.6254   17.6084    1.8740 C   0  0  0  0  0  0  0  0  0  0  0  0
    5.3293   16.4314    3.4135 C   0  0  0  0  0  0  0  0  0  0  0  0
    7.0848   17.7362    0.6325 N   0  0  0  0  0  0  0  0  0  0  0  0
    4.5419   15.4076    3.7610 N   0  0  0  0  0  0  0  0  0  0  0  0
    5.8230   16.5641    2.1752 N   0  0  0  0  0  0  0  0  0  0  0  0
    6.9445   18.5357    2.8041 N   0  0  0  0  0  0  0  0  0  0  0  0
    5.4991   18.1837    6.6643 N   0  0  0  0  0  0  0  0  0  0  0  0
    6.3308   19.2582    6.3132 C   0  0  0  0  0  0  0  0  0  0  0  0
    6.8281   19.3655    4.9934 N   0  0  0  0  0  0  0  0  0  0  0  0
    6.4787   18.4396    4.0744 C   0  0  0  0  0  0  0  0  0  0  0  0
    5.6416   17.3692    4.4054 C   0  0  0  0  0  0  0  0  0  0  0  0
    5.1408   17.2233    5.6977 C   0  0  0  0  0  0  0  0  0  0  0  0
  1  3  1  0  0  0  0
  1  5  1  0  0  0  0
  1  6  2  0  0  0  0
  2  5  2  0  0  0  0
  2 11  1  0  0  0  0
  2  4  1  0  0  0  0
  6 10  1  0  0  0  0
  7  8  2  0  0  0  0
  7 12  1  0  0  0  0
  8  9  1  0  0  0  0
  9 10  2  0  0  0  0
 10 11  1  0  0  0  0
 11 12  2  0  0  0  0
M  END
>  <CHROM.1>
6.02984119,17.67348062,3.87036973,-1.36400133,0.93044598,1.13427029

>  <Name>
ligand

>  <RI>
0

>  <Rbt.Current_Directory>
/home/itssahil/PROJECTS/Mol_Feturizer/Test_systems_manuscript/rnas/4lx5

>  <Rbt.Executable>
rbdock ($Id: //depot/dev/client3/rdock/2013.1/src/exe/rbdock.cxx#4 $)

>  <Rbt.Library>
libRbt.so (2013.1, Build901 2013/11/27)

>  <Rbt.Parameter_File>
/export/apps/rDock/src/rDock_2013.1_src/data/scripts/dock_solv.prm

>  <Rbt.Receptor>
prm/blind_docking_60.prm

>  <SCORE>
-14.0881

>  <SCORE.INTER>
-14.0881

>  <SCORE.INTER.CONST>
1

>  <SCORE.INTER.POLAR>
0

>  <SCORE.INTER.ROT>
0

>  <SCORE.INTER.SOLV>
18.7825

>  <SCORE.INTER.VDW>
-19.2529

>  <SCORE.INTER.norm>
-1.17401

>  <SCORE.INTRA>
0

>  <SCORE.INTRA.DIHEDRAL>
0

>  <SCORE.INTRA.DIHEDRAL.0>
0

>  <SCORE.INTRA.POLAR>
0

>  <SCORE.INTRA.POLAR.0>
0

>  <SCORE.INTRA.REPUL>
0

>  <SCORE.INTRA.REPUL.0>
0

>  <SCORE.INTRA.SOLV>
0

>  <SCORE.INTRA.SOLV.lig_0>
-48.1583

>  <SCORE.INTRA.VDW>
0

>  <SCORE.INTRA.VDW.0>
0

>  <SCORE.INTRA.norm>
0

>  <SCORE.RESTR>
0

>  <SCORE.RESTR.CAVITY>
0

>  <SCORE.RESTR.norm>
0

>  <SCORE.SYSTEM>
0

>  <SCORE.SYSTEM.CONST>
0

>  <SCORE.SYSTEM.DIHEDRAL>
0

>  <SCORE.SYSTEM.SOLV>
0

>  <SCORE.SYSTEM.norm>
0

>  <SCORE.heavy>
12

>  <SCORE.norm>
-1.17401

>  <RMSD>
0.650

$$$$
ligand
 OpenBabel02271912143D
libRbt.so/2013.1/901 2013/11/27
 12 13  0  0  0  0  0  0  0  0999 V2000
    6.6072   17.6148    1.8530 C   0  0  0  0  0  0  0  0  0  0  0  0
    5.3339   16.4495    3.4201 C   0  0  0  0  0  0  0  0  0  0  0  0
    7.0471   17.7340    0.6035 N   0  0  0  0  0  0  0  0  0  0  0  0
    4.5506   15.4292    3.7865 N   0  0  0  0  0  0  0  0  0  0  0  0
    5.8081   16.5736    2.1733 N   0  0  0  0  0  0  0  0  0  0  0  0
    6.9424   18.5474    2.7720 N   0  0  0  0  0  0  0  0  0  0  0  0
    5.5578   18.2219    6.6568 N   0  0  0  0  0  0  0  0  0  0  0  0
    6.3854   19.2929    6.2857 C   0  0  0  0  0  0  0  0  0  0  0  0
    6.8619   19.3910    4.9576 N   0  0  0  0  0  0  0  0  0  0  0  0
    6.4966   18.4600    4.0501 C   0  0  0  0  0  0  0  0  0  0  0  0
    5.6632   17.3930    4.4010 C   0  0  0  0  0  0  0  0  0  0  0  0
    5.1827   17.2560    5.7021 C   0  0  0  0  0  0  0  0  0  0  0  0
  1  3  1  0  0  0  0
  1  5  1  0  0  0  0
  1  6  2  0  0  0  0
  2  5  2  0  0  0  0
  2 11  1  0  0  0  0
  2  4  1  0  0  0  0
  6 10  1  0  0  0  0
  7  8  2  0  0  0  0
  7 12  1  0  0  0  0
  8  9  1  0  0  0  0
  9 10  2  0  0  0  0
 10 11  1  0  0  0  0
 11 12  2  0  0  0  0
M  END
>  <CHROM.1>
6.04343049,17.69330234,3.85803534,-1.38925978,0.93563537,1.14827342

>  <Name>
ligand

>  <RI>
0

>  <Rbt.Current_Directory>
/home/itssahil/PROJECTS/Mol_Feturizer/Test_systems_manuscript/rnas/4lx5

>  <Rbt.Executable>
rbdock ($Id: //depot/dev/client3/rdock/2013.1/src/exe/rbdock.cxx#4 $)

>  <Rbt.Library>
libRbt.so (2013.1, Build901 2013/11/27)

>  <Rbt.Parameter_File>
/export/apps/rDock/src/rDock_2013.1_src/data/scripts/dock_solv.prm

>  <Rbt.Receptor>
prm/pocket_docking_7.prm

>  <SCORE>
-14.0113

>  <SCORE.INTER>
-14.0113

>  <SCORE.INTER.CONST>
1

>  <SCORE.INTER.POLAR>
0

>  <SCORE.INTER.ROT>
0

>  <SCORE.INTER.SOLV>
18.7433

>  <SCORE.INTER.VDW>
-19.1886

>  <SCORE.INTER.norm>
-1.1676

>  <SCORE.INTRA>
0

>  <SCORE.INTRA.DIHEDRAL>
0

>  <SCORE.INTRA.DIHEDRAL.0>
0

>  <SCORE.INTRA.POLAR>
0

>  <SCORE.INTRA.POLAR.0>
0

>  <SCORE.INTRA.REPUL>
0

>  <SCORE.INTRA.REPUL.0>
0

>  <SCORE.INTRA.SOLV>
0

>  <SCORE.INTRA.SOLV.lig_0>
-48.1583

>  <SCORE.INTRA.VDW>
0

>  <SCORE.INTRA.VDW.0>
0

>  <SCORE.INTRA.norm>
0

>  <SCORE.RESTR>
0

>  <SCORE.RESTR.CAVITY>
0

>  <SCORE.RESTR.norm>
0

>  <SCORE.SYSTEM>
0

>  <SCORE.SYSTEM.CONST>
0

>  <SCORE.SYSTEM.DIHEDRAL>
0

>  <SCORE.SYSTEM.SOLV>
0

>  <SCORE.SYSTEM.norm>
0

>  <SCORE.heavy>
12

>  <SCORE.norm>
-1.1676

>  <RMSD>
0.661

$$$$
ligand
 OpenBabel02271912143D
libRbt.so/2013.1/901 2013/11/27
 12 13  0  0  0  0  0  0  0  0999 V2000
    6.7035   17.7422    1.1604 C   0  0  0  0  0  0  0  0  0  0  0  0
    6.7486   18.2755    3.4295 C   0  0  0  0  0  0  0  0  0  0  0  0
    7.0916   18.0143   -0.0822 N   0  0  0  0  0  0  0  0  0  0  0  0
    7.1140   19.0502    4.4568 N   0  0  0  0  0  0  0  0  0  0  0  0
    7.1077   18.5468    2.1677 N   0  0  0  0  0  0  0  0  0  0  0  0
    5.9370   16.6549    1.3989 N   0  0  0  0  0  0  0  0  0  0  0  0
    4.7463   15.7635    5.2593 N   0  0  0  0  0  0  0  0  0  0  0  0
    4.3504   14.9476    4.1882 C   0  0  0  0  0  0  0  0  0  0  0  0
    4.7543   15.2653    2.8704 N   0  0  0  0  0  0  0  0  0  0  0  0
    5.5384   16.3441    2.6576 C   0  0  0  0  0  0  0  0  0  0  0  0
    5.9509   17.1607    3.7155 C   0  0  0  0  0  0  0  0  0  0  0  0
    5.5643   16.8867    5.0261 C   0  0  0  0  0  0  0  0  0  0  0  0
  1  3  1  0  0  0  0
  1  5  1  0  0  0  0
  1  6  2  0  0  0  0
  2  5  2  0  0  0  0
  2 11  1  0  0  0  0
  2  4  1  0  0  0  0
  6 10  1  0  0  0  0
  7  8  2  0  0  0  0
  7 12  1  0  0  0  0
  8  9  1  0  0  0  0
  9 10  2  0  0  0  0
 10 11  1  0  0  0  0
 11 12  2  0  0  0  0
M  END
>  <CHROM.1>
5.97936489,17.06669544,2.99443395,0.62765144,-0.95947012,-1.78380497

>  <Name>
ligand

>  <RI>
0

>  <Rbt.Current_Directory>
/home/itssahil/PROJECTS/Mol_Feturizer/Test_systems_manuscript/rnas/4lx5

>  <Rbt.Executable>
rbdock ($Id: //depot/dev/client3/rdock/2013.1/src/exe/rbdock.cxx#4 $)

>  <Rbt.Library>
libRbt.so (2013.1, Build901 2013/11/27)

>  <Rbt.Parameter_File>
/export/apps/rDock/src/rDock_2013.1_src/data/scripts/dock_solv.prm

>  <Rbt.Receptor>
prm/blind_docking_100.prm

>  <SCORE>
-9.42203

>  <SCORE.INTER>
-9.42203

>  <SCORE.INTER.CONST>
1

>  <SCORE.INTER.POLAR>
0

>  <SCORE.INTER.ROT>
0

>  <SCORE.INTER.SOLV>
21.9484

>  <SCORE.INTER.VDW>
-17.1975

>  <SCORE.INTER.norm>
-0.785169

>  <SCORE.INTRA>
0

>  <SCORE.INTRA.DIHEDRAL>
0

>  <SCORE.INTRA.DIHEDRAL.0>
0

>  <SCORE.INTRA.POLAR>
0

>  <SCORE.INTRA.POLAR.0>
0

>  <SCORE.INTRA.REPUL>
0

>  <SCORE.INTRA.REPUL.0>
0

>  <SCORE.INTRA.SOLV>
0

>  <SCORE.INTRA.SOLV.lig_0>
-48.1583

>  <SCORE.INTRA.VDW>
0

>  <SCORE.INTRA.VDW.0>
0

>  <SCORE.INTRA.norm>
0

>  <SCORE.RESTR>
0

>  <SCORE.RESTR.CAVITY>
0

>  <SCORE.RESTR.norm>
0

>  <SCORE.SYSTEM>
0

>  <SCORE.SYSTEM.CONST>
0

>  <SCORE.SYSTEM.DIHEDRAL>
0

>  <SCORE.SYSTEM.SOLV>
0

>  <SCORE.SYSTEM.norm>
0

>  <SCORE.heavy>
12

>  <SCORE.norm>
-0.785169

>  <RMSD>
2.804

$$$$
ligand
 OpenBabel02271912143D
libRbt.so/2013.1/901 2013/11/27
 12 13  0  0  0  0  0  0  0  0999 V2000
    6.7586   17.7177    1.1661 C   0  0  0  0  0  0  0  0  0  0  0  0
    6.7217   18.0919    3.4669 C   0  0  0  0  0  0  0  0  0  0  0  0
    7.2042   18.0646   -0.0380 N   0  0  0  0  0  0  0  0  0  0  0  0
    7.0618   18.7843    4.5596 N   0  0  0  0  0  0  0  0  0  0  0  0
    7.1391   18.4402    2.2424 N   0  0  0  0  0  0  0  0  0  0  0  0
    5.9581   16.6366    1.2972 N   0  0  0  0  0  0  0  0  0  0  0  0
    4.5877   15.5124    5.0353 N   0  0  0  0  0  0  0  0  0  0  0  0
    4.2180   14.7828    3.8949 C   0  0  0  0  0  0  0  0  0  0  0  0
    4.6835   15.1800    2.6196 N   0  0  0  0  0  0  0  0  0  0  0  0
    5.5004   16.2503    2.5142 C   0  0  0  0  0  0  0  0  0  0  0  0
    5.8873   16.9811    3.6422 C   0  0  0  0  0  0  0  0  0  0  0  0
    5.4404   16.6275    4.9140 C   0  0  0  0  0  0  0  0  0  0  0  0
  1  3  1  0  0  0  0
  1  5  1  0  0  0  0
  1  6  2  0  0  0  0
  2  5  2  0  0  0  0
  2 11  1  0  0  0  0
  2  4  1  0  0  0  0
  6 10  1  0  0  0  0
  7  8  2  0  0  0  0
  7 12  1  0  0  0  0
  8  9  1  0  0  0  0
  9 10  2  0  0  0  0
 10 11  1  0  0  0  0
 11 12  2  0  0  0  0
M  END
>  <CHROM.1>
5.94353546,16.93629631,2.91804082,0.56803289,-0.92730622,-1.76256344

>  <Name>
ligand

>  <RI>
0

>  <Rbt.Current_Directory>
/home/itssahil/PROJECTS/Mol_Feturizer/Test_systems_manuscript/rnas/4lx5

>  <Rbt.Executable>
rbdock ($Id: //depot/dev/client3/rdock/2013.1/src/exe/rbdock.cxx#4 $)

>  <Rbt.Library>
libRbt.so (2013.1, Build901 2013/11/27)

>  <Rbt.Parameter_File>
/export/apps/rDock/src/rDock_2013.1_src/data/scripts/dock_solv.prm

>  <Rbt.Receptor>
prm/blind_docking_60.prm

>  <SCORE>
-9.66438

>  <SCORE.INTER>
-9.66438

>  <SCORE.INTER.CONST>
1

>  <SCORE.INTER.POLAR>
0

>  <SCORE.INTER.ROT>
0

>  <SCORE.INTER.SOLV>
20.9721

>  <SCORE.INTER.VDW>
-17.0336

>  <SCORE.INTER.norm>
-0.805365

>  <SCORE.INTRA>
0

>  <SCORE.INTRA.DIHEDRAL>
0

>  <SCORE.INTRA.DIHEDRAL.0>
0

>  <SCORE.INTRA.POLAR>
0

>  <SCORE.INTRA.POLAR.0>
0

>  <SCORE.INTRA.REPUL>
0

>  <SCORE.INTRA.REPUL.0>
0

>  <SCORE.INTRA.SOLV>
0

>  <SCORE.INTRA.SOLV.lig_0>
-48.1583

>  <SCORE.INTRA.VDW>
0

>  <SCORE.INTRA.VDW.0>
0

>  <SCORE.INTRA.norm>
0

>  <SCORE.RESTR>
0

>  <SCORE.RESTR.CAVITY>
0

>  <SCORE.RESTR.norm>
0

>  <SCORE.SYSTEM>
0

>  <SCORE.SYSTEM.CONST>
0

>  <SCORE.SYSTEM.DIHEDRAL>
0

>  <SCORE.SYSTEM.SOLV>
0

>  <SCORE.SYSTEM.norm>
0

>  <SCORE.heavy>
12

>  <SCORE.norm>
-0.805365

>  <RMSD>
2.868

$$$$
ligand
 OpenBabel02271912143D
libRbt.so/2013.1/901 2013/11/27
 12 13  0  0  0  0  0  0  0  0999 V2000
    6.6724   17.7666    1.1623 C   0  0  0  0  0  0  0  0  0  0  0  0
    6.7102   18.0933    3.4702 C   0  0  0  0  0  0  0  0  0  0  0  0
    7.0861   18.1327   -0.0476 N   0  0  0  0  0  0  0  0  0  0  0  0
    7.0926   18.7582    4.5659 N   0  0  0  0  0  0  0  0  0  0  0  0
    7.0951   18.4615    2.2410 N   0  0  0  0  0  0  0  0  0  0  0  0
    5.8615   16.6936    1.2957 N   0  0  0  0  0  0  0  0  0  0  0  0
    4.5895   15.5098    5.0501 N   0  0  0  0  0  0  0  0  0  0  0  0
    4.1755   14.8090    3.9068 C   0  0  0  0  0  0  0  0  0  0  0  0
    4.6076   15.2265    2.6264 N   0  0  0  0  0  0  0  0  0  0  0  0
    5.4355   16.2880    2.5179 C   0  0  0  0  0  0  0  0  0  0  0  0
    5.8664   16.9900    3.6483 C   0  0  0  0  0  0  0  0  0  0  0  0
    5.4533   16.6160    4.9256 C   0  0  0  0  0  0  0  0  0  0  0  0
  1  3  1  0  0  0  0
  1  5  1  0  0  0  0
  1  6  2  0  0  0  0
  2  5  2  0  0  0  0
  2 11  1  0  0  0  0
  2  4  1  0  0  0  0
  6 10  1  0  0  0  0
  7  8  2  0  0  0  0
  7 12  1  0  0  0  0
  8  9  1  0  0  0  0
  9 10  2  0  0  0  0
 10 11  1  0  0  0  0
 11 12  2  0  0  0  0
M  END
>  <CHROM.1>
5.90004045,16.95961347,2.92195682,0.62129492,-0.91894084,-1.69947145

>  <Name>
ligand

>  <RI>
0

>  <Rbt.Current_Directory>
/home/itssahil/PROJECTS/Mol_Feturizer/Test_systems_manuscript/rnas/4lx5

>  <Rbt.Executable>
rbdock ($Id: //depot/dev/client3/rdock/2013.1/src/exe/rbdock.cxx#4 $)

>  <Rbt.Library>
libRbt.so (2013.1, Build901 2013/11/27)

>  <Rbt.Parameter_File>
/export/apps/rDock/src/rDock_2013.1_src/data/scripts/dock_solv.prm

>  <Rbt.Receptor>
prm/pocket_docking_8.prm

>  <SCORE>
-9.44877

>  <SCORE.INTER>
-9.44877

>  <SCORE.INTER.CONST>
1

>  <SCORE.INTER.POLAR>
0

>  <SCORE.INTER.ROT>
0

>  <SCORE.INTER.SOLV>
20.9733

>  <SCORE.INTER.VDW>
-16.8903

>  <SCORE.INTER.norm>
-0.787397

>  <SCORE.INTRA>
0

>  <SCORE.INTRA.DIHEDRAL>
0

>  <SCORE.INTRA.DIHEDRAL.0>
0

>  <SCORE.INTRA.POLAR>
0

>  <SCORE.INTRA.POLAR.0>
0

>  <SCORE.INTRA.REPUL>
0

>  <SCORE.INTRA.REPUL.0>
0

>  <SCORE.INTRA.SOLV>
0

>  <SCORE.INTRA.SOLV.lig_0>
-48.1583

>  <SCORE.INTRA.VDW>
0

>  <SCORE.INTRA.VDW.0>
0

>  <SCORE.INTRA.norm>
0

>  <SCORE.RESTR>
0

>  <SCORE.RESTR.CAVITY>
0

>  <SCORE.RESTR.norm>
0

>  <SCORE.SYSTEM>
0

>  <SCORE.SYSTEM.CONST>
0

>  <SCORE.SYSTEM.DIHEDRAL>
0

>  <SCORE.SYSTEM.SOLV>
0

>  <SCORE.SYSTEM.norm>
0

>  <SCORE.heavy>
12

>  <SCORE.norm>
-0.787397

>  <RMSD>
2.868

$$$$
ligand
 OpenBabel02271912143D
libRbt.so/2013.1/901 2013/11/27
 12 13  0  0  0  0  0  0  0  0999 V2000
    4.6908   15.3699    3.7952 C   0  0  0  0  0  0  0  0  0  0  0  0
    6.0920   16.9758    2.8503 C   0  0  0  0  0  0  0  0  0  0  0  0
    3.9968   14.2431    3.6629 N   0  0  0  0  0  0  0  0  0  0  0  0
    6.7666   17.5010    1.8217 N   0  0  0  0  0  0  0  0  0  0  0  0
    5.3665   15.8559    2.7310 N   0  0  0  0  0  0  0  0  0  0  0  0
    4.7315   15.9937    4.9934 N   0  0  0  0  0  0  0  0  0  0  0  0
    6.9128   19.4801    5.4431 N   0  0  0  0  0  0  0  0  0  0  0  0
    6.2027   18.9424    6.5276 C   0  0  0  0  0  0  0  0  0  0  0  0
    5.4518   17.7552    6.3623 N   0  0  0  0  0  0  0  0  0  0  0  0
    5.4429   17.1363    5.1620 C   0  0  0  0  0  0  0  0  0  0  0  0
    6.1545   17.6530    4.0744 C   0  0  0  0  0  0  0  0  0  0  0  0
    6.8967   18.8264    4.1950 C   0  0  0  0  0  0  0  0  0  0  0  0
  1  3  1  0  0  0  0
  1  5  1  0  0  0  0
  1  6  2  0  0  0  0
  2  5  2  0  0  0  0
  2 11  1  0  0  0  0
  2  4  1  0  0  0  0
  6 10  1  0  0  0  0
  7  8  2  0  0  0  0
  7 12  1  0  0  0  0
  8  9  1  0  0  0  0
  9 10  2  0  0  0  0
 10 11  1  0  0  0  0
 11 12  2  0  0  0  0
M  END
>  <CHROM.1>
5.71105105,17.11834520,4.29141494,2.23531615,-0.93015959,-2.02430319

>  <Name>
ligand

>  <RI>
0

>  <Rbt.Current_Directory>
/home/itssahil/PROJECTS/Mol_Feturizer/Test_systems_manuscript/rnas/4lx5

>  <Rbt.Executable>
rbdock ($Id: //depot/dev/client3/rdock/2013.1/src/exe/rbdock.cxx#4 $)

>  <Rbt.Library>
libRbt.so (2013.1, Build901 2013/11/27)

>  <Rbt.Parameter_File>
/export/apps/rDock/src/rDock_2013.1_src/data/scripts/dock_solv.prm

>  <Rbt.Receptor>
prm/pocket_docking_6.prm

>  <SCORE>
-15.0008

>  <SCORE.INTER>
-15.0008

>  <SCORE.INTER.CONST>
1

>  <SCORE.INTER.POLAR>
0

>  <SCORE.INTER.ROT>
0

>  <SCORE.INTER.SOLV>
15.8352

>  <SCORE.INTER.VDW>
-18.879

>  <SCORE.INTER.norm>
-1.25007

>  <SCORE.INTRA>
0

>  <SCORE.INTRA.DIHEDRAL>
0

>  <SCORE.INTRA.DIHEDRAL.0>
0

>  <SCORE.INTRA.POLAR>
0

>  <SCORE.INTRA.POLAR.0>
0

>  <SCORE.INTRA.REPUL>
0

>  <SCORE.INTRA.REPUL.0>
0

>  <SCORE.INTRA.SOLV>
0

>  <SCORE.INTRA.SOLV.lig_0>
-48.1583

>  <SCORE.INTRA.VDW>
0

>  <SCORE.INTRA.VDW.0>
0

>  <SCORE.INTRA.norm>
0

>  <SCORE.RESTR>
0

>  <SCORE.RESTR.CAVITY>
0

>  <SCORE.RESTR.norm>
0

>  <SCORE.SYSTEM>
0

>  <SCORE.SYSTEM.CONST>
0

>  <SCORE.SYSTEM.DIHEDRAL>
0

>  <SCORE.SYSTEM.SOLV>
0

>  <SCORE.SYSTEM.norm>
0

>  <SCORE.heavy>
12

>  <SCORE.norm>
-1.25007

>  <RMSD>
3.006

$$$$
ligand
 OpenBabel02271912143D
libRbt.so/2013.1/901 2013/11/27
 12 13  0  0  0  0  0  0  0  0999 V2000
    4.8006   15.4861    3.8473 C   0  0  0  0  0  0  0  0  0  0  0  0
    6.2335   17.0988    2.9633 C   0  0  0  0  0  0  0  0  0  0  0  0
    4.1144   14.3586    3.6839 N   0  0  0  0  0  0  0  0  0  0  0  0
    6.9456   17.6298    1.9634 N   0  0  0  0  0  0  0  0  0  0  0  0
    5.5153   15.9781    2.8117 N   0  0  0  0  0  0  0  0  0  0  0  0
    4.7945   16.1047    5.0489 N   0  0  0  0  0  0  0  0  0  0  0  0
    6.9501   19.5931    5.5962 N   0  0  0  0  0  0  0  0  0  0  0  0
    6.2003   19.0494    6.6506 C   0  0  0  0  0  0  0  0  0  0  0  0
    5.4587   17.8615    6.4518 N   0  0  0  0  0  0  0  0  0  0  0  0
    5.4967   17.2479    5.2493 C   0  0  0  0  0  0  0  0  0  0  0  0
    6.2481   17.7707    4.1918 C   0  0  0  0  0  0  0  0  0  0  0  0
    6.9827   18.9449    4.3456 C   0  0  0  0  0  0  0  0  0  0  0  0
  1  3  1  0  0  0  0
  1  5  1  0  0  0  0
  1  6  2  0  0  0  0
  2  5  2  0  0  0  0
  2 11  1  0  0  0  0
  2  4  1  0  0  0  0
  6 10  1  0  0  0  0
  7  8  2  0  0  0  0
  7 12  1  0  0  0  0
  8  9  1  0  0  0  0
  9 10  2  0  0  0  0
 10 11  1  0  0  0  0
 11 12  2  0  0  0  0
M  END
>  <CHROM.1>
5.79775630,17.23426118,4.38949405,2.17784830,-0.91452299,-2.06574293

>  <Name>
ligand

>  <RI>
0

>  <Rbt.Current_Directory>
/home/itssahil/PROJECTS/Mol_Feturizer/Test_systems_manuscript/rnas/4lx5

>  <Rbt.Executable>
rbdock ($Id: //depot/dev/client3/rdock/2013.1/src/exe/rbdock.cxx#4 $)

>  <Rbt.Library>
libRbt.so (2013.1, Build901 2013/11/27)

>  <Rbt.Parameter_File>
/export/apps/rDock/src/rDock_2013.1_src/data/scripts/dock_solv.prm

>  <Rbt.Receptor>
prm/pocket_docking_6.prm

>  <SCORE>
-14.9999

>  <SCORE.INTER>
-14.9999

>  <SCORE.INTER.CONST>
1

>  <SCORE.INTER.POLAR>
0

>  <SCORE.INTER.ROT>
0

>  <SCORE.INTER.SOLV>
16.3728

>  <SCORE.INTER.VDW>
-19.0575

>  <SCORE.INTER.norm>
-1.24999

>  <SCORE.INTRA>
0

>  <SCORE.INTRA.DIHEDRAL>
0

>  <SCORE.INTRA.DIHEDRAL.0>
0

>  <SCORE.INTRA.POLAR>
0

>  <SCORE.INTRA.POLAR.0>
0

>  <SCORE.INTRA.REPUL>
0

>  <SCORE.INTRA.REPUL.0>
0

>  <SCORE.INTRA.SOLV>
0

>  <SCORE.INTRA.SOLV.lig_0>
-48.1583

>  <SCORE.INTRA.VDW>
0

>  <SCORE.INTRA.VDW.0>
0

>  <SCORE.INTRA.norm>
0

>  <SCORE.RESTR>
0

>  <SCORE.RESTR.CAVITY>
0

>  <SCORE.RESTR.norm>
0

>  <SCORE.SYSTEM>
0

>  <SCORE.SYSTEM.CONST>
0

>  <SCORE.SYSTEM.DIHEDRAL>
0

>  <SCORE.SYSTEM.SOLV>
0

>  <SCORE.SYSTEM.norm>
0

>  <SCORE.heavy>
12

>  <SCORE.norm>
-1.24999

>  <RMSD>
3.012

$$$$
ligand
 OpenBabel02271912143D
libRbt.so/2013.1/901 2013/11/27
 12 13  0  0  0  0  0  0  0  0999 V2000
    4.7018   15.3375    3.8154 C   0  0  0  0  0  0  0  0  0  0  0  0
    6.0930   16.9467    2.8614 C   0  0  0  0  0  0  0  0  0  0  0  0
    4.0188   14.2031    3.6910 N   0  0  0  0  0  0  0  0  0  0  0  0
    6.7678   17.4679    1.8308 N   0  0  0  0  0  0  0  0  0  0  0  0
    5.3783   15.8191    2.7497 N   0  0  0  0  0  0  0  0  0  0  0  0
    4.7310   15.9735    5.0076 N   0  0  0  0  0  0  0  0  0  0  0  0
    6.8781   19.4840    5.4330 N   0  0  0  0  0  0  0  0  0  0  0  0
    6.1676   18.9506    6.5193 C   0  0  0  0  0  0  0  0  0  0  0  0
    5.4284   17.7549    6.3623 N   0  0  0  0  0  0  0  0  0  0  0  0
    5.4311   17.1241    5.1681 C   0  0  0  0  0  0  0  0  0  0  0  0
    6.1433   17.6365    4.0790 C   0  0  0  0  0  0  0  0  0  0  0  0
    6.8741   18.8179    4.1914 C   0  0  0  0  0  0  0  0  0  0  0  0
  1  3  1  0  0  0  0
  1  5  1  0  0  0  0
  1  6  2  0  0  0  0
  2  5  2  0  0  0  0
  2 11  1  0  0  0  0
  2  4  1  0  0  0  0
  6 10  1  0  0  0  0
  7  8  2  0  0  0  0
  7 12  1  0  0  0  0
  8  9  1  0  0  0  0
  9 10  2  0  0  0  0
 10 11  1  0  0  0  0
 11 12  2  0  0  0  0
M  END
>  <CHROM.1>
5.70365106,17.10002787,4.29911268,2.22111798,-0.93616525,-2.04565380

>  <Name>
ligand

>  <RI>
0

>  <Rbt.Current_Directory>
/home/itssahil/PROJECTS/Mol_Feturizer/Test_systems_manuscript/rnas/4lx5

>  <Rbt.Executable>
rbdock ($Id: //depot/dev/client3/rdock/2013.1/src/exe/rbdock.cxx#4 $)

>  <Rbt.Library>
libRbt.so (2013.1, Build901 2013/11/27)

>  <Rbt.Parameter_File>
/export/apps/rDock/src/rDock_2013.1_src/data/scripts/dock_solv.prm

>  <Rbt.Receptor>
prm/pocket_docking_5.prm

>  <SCORE>
-15.0177

>  <SCORE.INTER>
-15.0177

>  <SCORE.INTER.CONST>
1

>  <SCORE.INTER.POLAR>
0

>  <SCORE.INTER.ROT>
0

>  <SCORE.INTER.SOLV>
15.9519

>  <SCORE.INTER.VDW>
-18.9291

>  <SCORE.INTER.norm>
-1.25147

>  <SCORE.INTRA>
0

>  <SCORE.INTRA.DIHEDRAL>
0

>  <SCORE.INTRA.DIHEDRAL.0>
0

>  <SCORE.INTRA.POLAR>
0

>  <SCORE.INTRA.POLAR.0>
0

>  <SCORE.INTRA.REPUL>
0

>  <SCORE.INTRA.REPUL.0>
0

>  <SCORE.INTRA.SOLV>
0

>  <SCORE.INTRA.SOLV.lig_0>
-48.1583

>  <SCORE.INTRA.VDW>
0

>  <SCORE.INTRA.VDW.0>
0

>  <SCORE.INTRA.norm>
0

>  <SCORE.RESTR>
0

>  <SCORE.RESTR.CAVITY>
0

>  <SCORE.RESTR.norm>
0

>  <SCORE.SYSTEM>
0

>  <SCORE.SYSTEM.CONST>
0

>  <SCORE.SYSTEM.DIHEDRAL>
0

>  <SCORE.SYSTEM.SOLV>
0

>  <SCORE.SYSTEM.norm>
0

>  <SCORE.heavy>
12

>  <SCORE.norm>
-1.25147

>  <RMSD>
3.013

$$$$
ligand
 OpenBabel02271912143D
libRbt.so/2013.1/901 2013/11/27
 12 13  0  0  0  0  0  0  0  0999 V2000
    4.7214   15.3513    3.8345 C   0  0  0  0  0  0  0  0  0  0  0  0
    6.0980   16.9628    2.8635 C   0  0  0  0  0  0  0  0  0  0  0  0
    4.0386   14.2159    3.7185 N   0  0  0  0  0  0  0  0  0  0  0  0
    6.7591   17.4851    1.8247 N   0  0  0  0  0  0  0  0  0  0  0  0
    5.3837   15.8341    2.7606 N   0  0  0  0  0  0  0  0  0  0  0  0
    4.7645   15.9872    5.0264 N   0  0  0  0  0  0  0  0  0  0  0  0
    6.9114   19.5009    5.4255 N   0  0  0  0  0  0  0  0  0  0  0  0
    6.2153   18.9663    6.5206 C   0  0  0  0  0  0  0  0  0  0  0  0
    5.4761   17.7695    6.3726 N   0  0  0  0  0  0  0  0  0  0  0  0
    5.4648   17.1389    5.1784 C   0  0  0  0  0  0  0  0  0  0  0  0
    6.1625   17.6525    4.0805 C   0  0  0  0  0  0  0  0  0  0  0  0
    6.8929   18.8349    4.1840 C   0  0  0  0  0  0  0  0  0  0  0  0
  1  3  1  0  0  0  0
  1  5  1  0  0  0  0
  1  6  2  0  0  0  0
  2  5  2  0  0  0  0
  2 11  1  0  0  0  0
  2  4  1  0  0  0  0
  6 10  1  0  0  0  0
  7  8  2  0  0  0  0
  7 12  1  0  0  0  0
  8  9  1  0  0  0  0
  9 10  2  0  0  0  0
 10 11  1  0  0  0  0
 11 12  2  0  0  0  0
M  END
>  <CHROM.1>
5.72649262,17.11530712,4.30600594,2.23885534,-0.94315348,-2.03117556

>  <Name>
ligand

>  <RI>
0

>  <Rbt.Current_Directory>
/home/itssahil/PROJECTS/Mol_Feturizer/Test_systems_manuscript/rnas/4lx5

>  <Rbt.Executable>
rbdock ($Id: //depot/dev/client3/rdock/2013.1/src/exe/rbdock.cxx#4 $)

>  <Rbt.Library>
libRbt.so (2013.1, Build901 2013/11/27)

>  <Rbt.Parameter_File>
/export/apps/rDock/src/rDock_2013.1_src/data/scripts/dock_solv.prm

>  <Rbt.Receptor>
prm/pocket_docking_6.prm

>  <SCORE>
-15.0175

>  <SCORE.INTER>
-15.0175

>  <SCORE.INTER.CONST>
1

>  <SCORE.INTER.POLAR>
0

>  <SCORE.INTER.ROT>
0

>  <SCORE.INTER.SOLV>
15.9683

>  <SCORE.INTER.VDW>
-18.9344

>  <SCORE.INTER.norm>
-1.25146

>  <SCORE.INTRA>
0

>  <SCORE.INTRA.DIHEDRAL>
0

>  <SCORE.INTRA.DIHEDRAL.0>
0

>  <SCORE.INTRA.POLAR>
0

>  <SCORE.INTRA.POLAR.0>
0

>  <SCORE.INTRA.REPUL>
0

>  <SCORE.INTRA.REPUL.0>
0

>  <SCORE.INTRA.SOLV>
0

>  <SCORE.INTRA.SOLV.lig_0>
-48.1583

>  <SCORE.INTRA.VDW>
0

>  <SCORE.INTRA.VDW.0>
0

>  <SCORE.INTRA.norm>
0

>  <SCORE.RESTR>
0

>  <SCORE.RESTR.CAVITY>
0

>  <SCORE.RESTR.norm>
0

>  <SCORE.SYSTEM>
0

>  <SCORE.SYSTEM.CONST>
0

>  <SCORE.SYSTEM.DIHEDRAL>
0

>  <SCORE.SYSTEM.SOLV>
0

>  <SCORE.SYSTEM.norm>
0

>  <SCORE.heavy>
12

>  <SCORE.norm>
-1.25146

>  <RMSD>
3.013

$$$$
ligand
 OpenBabel02271912143D
libRbt.so/2013.1/901 2013/11/27
 12 13  0  0  0  0  0  0  0  0999 V2000
    4.7622   15.4444    3.8485 C   0  0  0  0  0  0  0  0  0  0  0  0
    6.2133   17.0285    2.9429 C   0  0  0  0  0  0  0  0  0  0  0  0
    4.0657   14.3210    3.7014 N   0  0  0  0  0  0  0  0  0  0  0  0
    6.9336   17.5361    1.9367 N   0  0  0  0  0  0  0  0  0  0  0  0
    5.4848   15.9124    2.8073 N   0  0  0  0  0  0  0  0  0  0  0  0
    4.7585   16.0827    5.0399 N   0  0  0  0  0  0  0  0  0  0  0  0
    6.9460   19.5587    5.5369 N   0  0  0  0  0  0  0  0  0  0  0  0
    6.1878   19.0395    6.5976 C   0  0  0  0  0  0  0  0  0  0  0  0
    5.4353   17.8557    6.4159 N   0  0  0  0  0  0  0  0  0  0  0  0
    5.4711   17.2221    5.2237 C   0  0  0  0  0  0  0  0  0  0  0  0
    6.2307   17.7203    4.1603 C   0  0  0  0  0  0  0  0  0  0  0  0
    6.9762   18.8898    4.2972 C   0  0  0  0  0  0  0  0  0  0  0  0
  1  3  1  0  0  0  0
  1  5  1  0  0  0  0
  1  6  2  0  0  0  0
  2  5  2  0  0  0  0
  2 11  1  0  0  0  0
  2  4  1  0  0  0  0
  6 10  1  0  0  0  0
  7  8  2  0  0  0  0
  7 12  1  0  0  0  0
  8  9  1  0  0  0  0
  9 10  2  0  0  0  0
 10 11  1  0  0  0  0
 11 12  2  0  0  0  0
M  END
>  <CHROM.1>
5.77458204,17.19154150,4.36525385,2.18095756,-0.90456196,-2.07967698

>  <Name>
ligand

>  <RI>
0

>  <Rbt.Current_Directory>
/home/itssahil/PROJECTS/Mol_Feturizer/Test_systems_manuscript/rnas/4lx5

>  <Rbt.Executable>
rbdock ($Id: //depot/dev/client3/rdock/2013.1/src/exe/rbdock.cxx#4 $)

>  <Rbt.Library>
libRbt.so (2013.1, Build901 2013/11/27)

>  <Rbt.Parameter_File>
/export/apps/rDock/src/rDock_2013.1_src/data/scripts/dock_solv.prm

>  <Rbt.Receptor>
prm/pocket_docking_4.prm

>  <SCORE>
-15.0049

>  <SCORE.INTER>
-15.0049

>  <SCORE.INTER.CONST>
1

>  <SCORE.INTER.POLAR>
0

>  <SCORE.INTER.ROT>
0

>  <SCORE.INTER.SOLV>
16.2814

>  <SCORE.INTER.VDW>
-19.0304

>  <SCORE.INTER.norm>
-1.2504

>  <SCORE.INTRA>
0

>  <SCORE.INTRA.DIHEDRAL>
0

>  <SCORE.INTRA.DIHEDRAL.0>
0

>  <SCORE.INTRA.POLAR>
0

>  <SCORE.INTRA.POLAR.0>
0

>  <SCORE.INTRA.REPUL>
0

>  <SCORE.INTRA.REPUL.0>
0

>  <SCORE.INTRA.SOLV>
0

>  <SCORE.INTRA.SOLV.lig_0>
-48.1583

>  <SCORE.INTRA.VDW>
0

>  <SCORE.INTRA.VDW.0>
0

>  <SCORE.INTRA.norm>
0

>  <SCORE.RESTR>
0

>  <SCORE.RESTR.CAVITY>
0

>  <SCORE.RESTR.norm>
0

>  <SCORE.SYSTEM>
0

>  <SCORE.SYSTEM.CONST>
0

>  <SCORE.SYSTEM.DIHEDRAL>
0

>  <SCORE.SYSTEM.SOLV>
0

>  <SCORE.SYSTEM.norm>
0

>  <SCORE.heavy>
12

>  <SCORE.norm>
-1.2504

>  <RMSD>
3.014

$$$$
ligand
 OpenBabel02271912143D
libRbt.so/2013.1/901 2013/11/27
 12 13  0  0  0  0  0  0  0  0999 V2000
    4.7250   15.3349    3.8340 C   0  0  0  0  0  0  0  0  0  0  0  0
    6.0832   16.9719    2.8800 C   0  0  0  0  0  0  0  0  0  0  0  0
    4.0621   14.1887    3.7085 N   0  0  0  0  0  0  0  0  0  0  0  0
    6.7445   17.5085    1.8486 N   0  0  0  0  0  0  0  0  0  0  0  0
    5.3885   15.8320    2.7673 N   0  0  0  0  0  0  0  0  0  0  0  0
    4.7473   15.9675    5.0281 N   0  0  0  0  0  0  0  0  0  0  0  0
    6.8325   19.5147    5.4568 N   0  0  0  0  0  0  0  0  0  0  0  0
    6.1359   18.9651    6.5442 C   0  0  0  0  0  0  0  0  0  0  0  0
    5.4178   17.7568    6.3860 N   0  0  0  0  0  0  0  0  0  0  0  0
    5.4272   17.1300    5.1898 C   0  0  0  0  0  0  0  0  0  0  0  0
    6.1258   17.6587    4.0996 C   0  0  0  0  0  0  0  0  0  0  0  0
    6.8356   18.8526    4.2132 C   0  0  0  0  0  0  0  0  0  0  0  0
  1  3  1  0  0  0  0
  1  5  1  0  0  0  0
  1  6  2  0  0  0  0
  2  5  2  0  0  0  0
  2 11  1  0  0  0  0
  2  4  1  0  0  0  0
  6 10  1  0  0  0  0
  7  8  2  0  0  0  0
  7 12  1  0  0  0  0
  8  9  1  0  0  0  0
  9 10  2  0  0  0  0
 10 11  1  0  0  0  0
 11 12  2  0  0  0  0
M  END
>  <CHROM.1>
5.69677178,17.11362939,4.31966770,2.21285096,-0.95394937,-2.04910675

>  <Name>
ligand

>  <RI>
0

>  <Rbt.Current_Directory>
/home/itssahil/PROJECTS/Mol_Feturizer/Test_systems_manuscript/rnas/4lx5

>  <Rbt.Executable>
rbdock ($Id: //depot/dev/client3/rdock/2013.1/src/exe/rbdock.cxx#4 $)

>  <Rbt.Library>
libRbt.so (2013.1, Build901 2013/11/27)

>  <Rbt.Parameter_File>
/export/apps/rDock/src/rDock_2013.1_src/data/scripts/dock_solv.prm

>  <Rbt.Receptor>
prm/pocket_docking_7.prm

>  <SCORE>
-15.0229

>  <SCORE.INTER>
-15.0229

>  <SCORE.INTER.CONST>
1

>  <SCORE.INTER.POLAR>
0

>  <SCORE.INTER.ROT>
0

>  <SCORE.INTER.SOLV>
15.971

>  <SCORE.INTER.VDW>
-18.9389

>  <SCORE.INTER.norm>
-1.25191

>  <SCORE.INTRA>
0

>  <SCORE.INTRA.DIHEDRAL>
0

>  <SCORE.INTRA.DIHEDRAL.0>
0

>  <SCORE.INTRA.POLAR>
0

>  <SCORE.INTRA.POLAR.0>
0

>  <SCORE.INTRA.REPUL>
0

>  <SCORE.INTRA.REPUL.0>
0

>  <SCORE.INTRA.SOLV>
0

>  <SCORE.INTRA.SOLV.lig_0>
-48.1583

>  <SCORE.INTRA.VDW>
0

>  <SCORE.INTRA.VDW.0>
0

>  <SCORE.INTRA.norm>
0

>  <SCORE.RESTR>
0

>  <SCORE.RESTR.CAVITY>
0

>  <SCORE.RESTR.norm>
0

>  <SCORE.SYSTEM>
0

>  <SCORE.SYSTEM.CONST>
0

>  <SCORE.SYSTEM.DIHEDRAL>
0

>  <SCORE.SYSTEM.SOLV>
0

>  <SCORE.SYSTEM.norm>
0

>  <SCORE.heavy>
12

>  <SCORE.norm>
-1.25191

>  <RMSD>
3.016

$$$$
ligand
 OpenBabel02271912143D
libRbt.so/2013.1/901 2013/11/27
 12 13  0  0  0  0  0  0  0  0999 V2000
    4.7243   15.3278    3.8339 C   0  0  0  0  0  0  0  0  0  0  0  0
    6.0834   16.9679    2.8864 C   0  0  0  0  0  0  0  0  0  0  0  0
    4.0640   14.1805    3.7052 N   0  0  0  0  0  0  0  0  0  0  0  0
    6.7480   17.5062    1.8580 N   0  0  0  0  0  0  0  0  0  0  0  0
    5.3913   15.8267    2.7703 N   0  0  0  0  0  0  0  0  0  0  0  0
    4.7404   15.9599    5.0285 N   0  0  0  0  0  0  0  0  0  0  0  0
    6.8169   19.5109    5.4676 N   0  0  0  0  0  0  0  0  0  0  0  0
    6.1168   18.9595    6.5517 C   0  0  0  0  0  0  0  0  0  0  0  0
    5.4017   17.7499    6.3900 N   0  0  0  0  0  0  0  0  0  0  0  0
    5.4173   17.1236    5.1935 C   0  0  0  0  0  0  0  0  0  0  0  0
    6.1195   17.6541    4.1065 C   0  0  0  0  0  0  0  0  0  0  0  0
    6.8266   18.8494    4.2236 C   0  0  0  0  0  0  0  0  0  0  0  0
  1  3  1  0  0  0  0
  1  5  1  0  0  0  0
  1  6  2  0  0  0  0
  2  5  2  0  0  0  0
  2 11  1  0  0  0  0
  2  4  1  0  0  0  0
  6 10  1  0  0  0  0
  7  8  2  0  0  0  0
  7 12  1  0  0  0  0
  8  9  1  0  0  0  0
  9 10  2  0  0  0  0
 10 11  1  0  0  0  0
 11 12  2  0  0  0  0
M  END
>  <CHROM.1>
5.69060603,17.10817748,4.32451263,2.20487054,-0.95368398,-2.05515272

>  <Name>
ligand

>  <RI>
0

>  <Rbt.Current_Directory>
/home/itssahil/PROJECTS/Mol_Feturizer/Test_systems_manuscript/rnas/4lx5

>  <Rbt.Executable>
rbdock ($Id: //depot/dev/client3/rdock/2013.1/src/exe/rbdock.cxx#4 $)

>  <Rbt.Library>
libRbt.so (2013.1, Build901 2013/11/27)

>  <Rbt.Parameter_File>
/export/apps/rDock/src/rDock_2013.1_src/data/scripts/dock_solv.prm

>  <Rbt.Receptor>
prm/pocket_docking_3.prm

>  <SCORE>
-15.0186

>  <SCORE.INTER>
-15.0186

>  <SCORE.INTER.CONST>
1

>  <SCORE.INTER.POLAR>
0

>  <SCORE.INTER.ROT>
0

>  <SCORE.INTER.SOLV>
15.9836

>  <SCORE.INTER.VDW>
-18.9403

>  <SCORE.INTER.norm>
-1.25155

>  <SCORE.INTRA>
0

>  <SCORE.INTRA.DIHEDRAL>
0

>  <SCORE.INTRA.DIHEDRAL.0>
0

>  <SCORE.INTRA.POLAR>
0

>  <SCORE.INTRA.POLAR.0>
0

>  <SCORE.INTRA.REPUL>
0

>  <SCORE.INTRA.REPUL.0>
0

>  <SCORE.INTRA.SOLV>
0

>  <SCORE.INTRA.SOLV.lig_0>
-48.1583

>  <SCORE.INTRA.VDW>
0

>  <SCORE.INTRA.VDW.0>
0

>  <SCORE.INTRA.norm>
0

>  <SCORE.RESTR>
0

>  <SCORE.RESTR.CAVITY>
0

>  <SCORE.RESTR.norm>
0

>  <SCORE.SYSTEM>
0

>  <SCORE.SYSTEM.CONST>
0

>  <SCORE.SYSTEM.DIHEDRAL>
0

>  <SCORE.SYSTEM.SOLV>
0

>  <SCORE.SYSTEM.norm>
0

>  <SCORE.heavy>
12

>  <SCORE.norm>
-1.25155

>  <RMSD>
3.017

$$$$
ligand
 OpenBabel02271912143D
libRbt.so/2013.1/901 2013/11/27
 12 13  0  0  0  0  0  0  0  0999 V2000
    4.7749   15.4918    3.8698 C   0  0  0  0  0  0  0  0  0  0  0  0
    6.1985   17.1007    2.9643 C   0  0  0  0  0  0  0  0  0  0  0  0
    4.0893   14.3621    3.7192 N   0  0  0  0  0  0  0  0  0  0  0  0
    6.9023   17.6260    1.9556 N   0  0  0  0  0  0  0  0  0  0  0  0
    5.4810   15.9779    2.8256 N   0  0  0  0  0  0  0  0  0  0  0  0
    4.7766   16.1186    5.0672 N   0  0  0  0  0  0  0  0  0  0  0  0
    6.9304   19.6141    5.5748 N   0  0  0  0  0  0  0  0  0  0  0  0
    6.1894   19.0763    6.6384 C   0  0  0  0  0  0  0  0  0  0  0  0
    5.4482   17.8859    6.4532 N   0  0  0  0  0  0  0  0  0  0  0  0
    5.4784   17.2642    5.2546 C   0  0  0  0  0  0  0  0  0  0  0  0
    6.2210   17.7810    4.1881 C   0  0  0  0  0  0  0  0  0  0  0  0
    6.9549   18.9574    4.3285 C   0  0  0  0  0  0  0  0  0  0  0  0
  1  3  1  0  0  0  0
  1  5  1  0  0  0  0
  1  6  2  0  0  0  0
  2  5  2  0  0  0  0
  2 11  1  0  0  0  0
  2  4  1  0  0  0  0
  6 10  1  0  0  0  0
  7  8  2  0  0  0  0
  7 12  1  0  0  0  0
  8  9  1  0  0  0  0
  9 10  2  0  0  0  0
 10 11  1  0  0  0  0
 11 12  2  0  0  0  0
M  END
>  <CHROM.1>
5.77308630,17.24522335,4.39273931,2.18728058,-0.91946306,-2.06506558

>  <Name>
ligand

>  <RI>
0

>  <Rbt.Current_Directory>
/home/itssahil/PROJECTS/Mol_Feturizer/Test_systems_manuscript/rnas/4lx5

>  <Rbt.Executable>
rbdock ($Id: //depot/dev/client3/rdock/2013.1/src/exe/rbdock.cxx#4 $)

>  <Rbt.Library>
libRbt.so (2013.1, Build901 2013/11/27)

>  <Rbt.Parameter_File>
/export/apps/rDock/src/rDock_2013.1_src/data/scripts/dock_solv.prm

>  <Rbt.Receptor>
prm/pocket_docking_7.prm

>  <SCORE>
-15.009

>  <SCORE.INTER>
-15.009

>  <SCORE.INTER.CONST>
1

>  <SCORE.INTER.POLAR>
0

>  <SCORE.INTER.ROT>
0

>  <SCORE.INTER.SOLV>
16.1535

>  <SCORE.INTER.VDW>
-18.9905

>  <SCORE.INTER.norm>
-1.25075

>  <SCORE.INTRA>
0

>  <SCORE.INTRA.DIHEDRAL>
0

>  <SCORE.INTRA.DIHEDRAL.0>
0

>  <SCORE.INTRA.POLAR>
0

>  <SCORE.INTRA.POLAR.0>
0

>  <SCORE.INTRA.REPUL>
0

>  <SCORE.INTRA.REPUL.0>
0

>  <SCORE.INTRA.SOLV>
0

>  <SCORE.INTRA.SOLV.lig_0>
-48.1583

>  <SCORE.INTRA.VDW>
0

>  <SCORE.INTRA.VDW.0>
0

>  <SCORE.INTRA.norm>
0

>  <SCORE.RESTR>
0

>  <SCORE.RESTR.CAVITY>
0

>  <SCORE.RESTR.norm>
0

>  <SCORE.SYSTEM>
0

>  <SCORE.SYSTEM.CONST>
0

>  <SCORE.SYSTEM.DIHEDRAL>
0

>  <SCORE.SYSTEM.SOLV>
0

>  <SCORE.SYSTEM.norm>
0

>  <SCORE.heavy>
12

>  <SCORE.norm>
-1.25075

>  <RMSD>
3.019

$$$$
ligand
 OpenBabel02271912143D
libRbt.so/2013.1/901 2013/11/27
 12 13  0  0  0  0  0  0  0  0999 V2000
    4.7385   15.3819    3.8694 C   0  0  0  0  0  0  0  0  0  0  0  0
    6.1095   16.9985    2.8989 C   0  0  0  0  0  0  0  0  0  0  0  0
    4.0682   14.2388    3.7561 N   0  0  0  0  0  0  0  0  0  0  0  0
    6.7765   17.5184    1.8626 N   0  0  0  0  0  0  0  0  0  0  0  0
    5.4075   15.8620    2.7983 N   0  0  0  0  0  0  0  0  0  0  0  0
    4.7626   16.0285    5.0560 N   0  0  0  0  0  0  0  0  0  0  0  0
    6.8703   19.5667    5.4470 N   0  0  0  0  0  0  0  0  0  0  0  0
    6.1679   19.0347    6.5393 C   0  0  0  0  0  0  0  0  0  0  0  0
    5.4421   17.8294    6.3939 N   0  0  0  0  0  0  0  0  0  0  0  0
    5.4498   17.1884    5.2053 C   0  0  0  0  0  0  0  0  0  0  0  0
    6.1542   17.6994    4.1103 C   0  0  0  0  0  0  0  0  0  0  0  0
    6.8717   18.8899    4.2113 C   0  0  0  0  0  0  0  0  0  0  0  0
  1  3  1  0  0  0  0
  1  5  1  0  0  0  0
  1  6  2  0  0  0  0
  2  5  2  0  0  0  0
  2 11  1  0  0  0  0
  2  4  1  0  0  0  0
  6 10  1  0  0  0  0
  7  8  2  0  0  0  0
  7 12  1  0  0  0  0
  8  9  1  0  0  0  0
  9 10  2  0  0  0  0
 10 11  1  0  0  0  0
 11 12  2  0  0  0  0
M  END
>  <CHROM.1>
5.72105947,17.15985578,4.33596016,2.21496295,-0.94711039,-2.05925563

>  <Name>
ligand

>  <RI>
0

>  <Rbt.Current_Directory>
/home/itssahil/PROJECTS/Mol_Feturizer/Test_systems_manuscript/rnas/4lx5

>  <Rbt.Executable>
rbdock ($Id: //depot/dev/client3/rdock/2013.1/src/exe/rbdock.cxx#4 $)

>  <Rbt.Library>
libRbt.so (2013.1, Build901 2013/11/27)

>  <Rbt.Parameter_File>
/export/apps/rDock/src/rDock_2013.1_src/data/scripts/dock_solv.prm

>  <Rbt.Receptor>
prm/blind_docking_80.prm

>  <SCORE>
-15.0046

>  <SCORE.INTER>
-15.0046

>  <SCORE.INTER.CONST>
1

>  <SCORE.INTER.POLAR>
0

>  <SCORE.INTER.ROT>
0

>  <SCORE.INTER.SOLV>
16.0479

>  <SCORE.INTER.VDW>
-18.9524

>  <SCORE.INTER.norm>
-1.25038

>  <SCORE.INTRA>
0

>  <SCORE.INTRA.DIHEDRAL>
0

>  <SCORE.INTRA.DIHEDRAL.0>
0

>  <SCORE.INTRA.POLAR>
0

>  <SCORE.INTRA.POLAR.0>
0

>  <SCORE.INTRA.REPUL>
0

>  <SCORE.INTRA.REPUL.0>
0

>  <SCORE.INTRA.SOLV>
0

>  <SCORE.INTRA.SOLV.lig_0>
-48.1583

>  <SCORE.INTRA.VDW>
0

>  <SCORE.INTRA.VDW.0>
0

>  <SCORE.INTRA.norm>
0

>  <SCORE.RESTR>
0

>  <SCORE.RESTR.CAVITY>
0

>  <SCORE.RESTR.norm>
0

>  <SCORE.SYSTEM>
0

>  <SCORE.SYSTEM.CONST>
0

>  <SCORE.SYSTEM.DIHEDRAL>
0

>  <SCORE.SYSTEM.SOLV>
0

>  <SCORE.SYSTEM.norm>
0

>  <SCORE.heavy>
12

>  <SCORE.norm>
-1.25038

>  <RMSD>
3.020

$$$$
ligand
 OpenBabel02271912143D
libRbt.so/2013.1/901 2013/11/27
 12 13  0  0  0  0  0  0  0  0999 V2000
    4.8263   15.4910    3.8959 C   0  0  0  0  0  0  0  0  0  0  0  0
    6.2335   17.1077    2.9786 C   0  0  0  0  0  0  0  0  0  0  0  0
    4.1557   14.3512    3.7548 N   0  0  0  0  0  0  0  0  0  0  0  0
    6.9350   17.6307    1.9670 N   0  0  0  0  0  0  0  0  0  0  0  0
    5.5308   15.9745    2.8493 N   0  0  0  0  0  0  0  0  0  0  0  0
    4.8152   16.1309    5.0863 N   0  0  0  0  0  0  0  0  0  0  0  0
    6.9228   19.6585    5.5643 N   0  0  0  0  0  0  0  0  0  0  0  0
    6.1840   19.1231    6.6307 C   0  0  0  0  0  0  0  0  0  0  0  0
    5.4587   17.9215    6.4555 N   0  0  0  0  0  0  0  0  0  0  0  0
    5.5017   17.2871    5.2640 C   0  0  0  0  0  0  0  0  0  0  0  0
    6.2424   17.8015    4.1949 C   0  0  0  0  0  0  0  0  0  0  0  0
    6.9608   18.9886    4.3254 C   0  0  0  0  0  0  0  0  0  0  0  0
  1  3  1  0  0  0  0
  1  5  1  0  0  0  0
  1  6  2  0  0  0  0
  2  5  2  0  0  0  0
  2 11  1  0  0  0  0
  2  4  1  0  0  0  0
  6 10  1  0  0  0  0
  7  8  2  0  0  0  0
  7 12  1  0  0  0  0
  8  9  1  0  0  0  0
  9 10  2  0  0  0  0
 10 11  1  0  0  0  0
 11 12  2  0  0  0  0
M  END
>  <CHROM.1>
5.80028864,17.26245547,4.40359549,2.17111012,-0.92840751,-2.08893892

>  <Name>
ligand

>  <RI>
0

>  <Rbt.Current_Directory>
/home/itssahil/PROJECTS/Mol_Feturizer/Test_systems_manuscript/rnas/4lx5

>  <Rbt.Executable>
rbdock ($Id: //depot/dev/client3/rdock/2013.1/src/exe/rbdock.cxx#4 $)

>  <Rbt.Library>
libRbt.so (2013.1, Build901 2013/11/27)

>  <Rbt.Parameter_File>
/export/apps/rDock/src/rDock_2013.1_src/data/scripts/dock_solv.prm

>  <Rbt.Receptor>
prm/pocket_docking_3.prm

>  <SCORE>
-15.0146

>  <SCORE.INTER>
-15.0146

>  <SCORE.INTER.CONST>
1

>  <SCORE.INTER.POLAR>
0

>  <SCORE.INTER.ROT>
0

>  <SCORE.INTER.SOLV>
16.5303

>  <SCORE.INTER.VDW>
-19.1199

>  <SCORE.INTER.norm>
-1.25122

>  <SCORE.INTRA>
0

>  <SCORE.INTRA.DIHEDRAL>
0

>  <SCORE.INTRA.DIHEDRAL.0>
0

>  <SCORE.INTRA.POLAR>
0

>  <SCORE.INTRA.POLAR.0>
0

>  <SCORE.INTRA.REPUL>
0

>  <SCORE.INTRA.REPUL.0>
0

>  <SCORE.INTRA.SOLV>
0

>  <SCORE.INTRA.SOLV.lig_0>
-48.1583

>  <SCORE.INTRA.VDW>
0

>  <SCORE.INTRA.VDW.0>
0

>  <SCORE.INTRA.norm>
0

>  <SCORE.RESTR>
0

>  <SCORE.RESTR.CAVITY>
0

>  <SCORE.RESTR.norm>
0

>  <SCORE.SYSTEM>
0

>  <SCORE.SYSTEM.CONST>
0

>  <SCORE.SYSTEM.DIHEDRAL>
0

>  <SCORE.SYSTEM.SOLV>
0

>  <SCORE.SYSTEM.norm>
0

>  <SCORE.heavy>
12

>  <SCORE.norm>
-1.25122

>  <RMSD>
3.021

$$$$
ligand
 OpenBabel02271912143D
libRbt.so/2013.1/901 2013/11/27
 12 13  0  0  0  0  0  0  0  0999 V2000
    4.7446   15.3945    3.8792 C   0  0  0  0  0  0  0  0  0  0  0  0
    6.1325   17.0076    2.9272 C   0  0  0  0  0  0  0  0  0  0  0  0
    4.0702   14.2548    3.7559 N   0  0  0  0  0  0  0  0  0  0  0  0
    6.8122   17.5274    1.8991 N   0  0  0  0  0  0  0  0  0  0  0  0
    5.4264   15.8746    2.8162 N   0  0  0  0  0  0  0  0  0  0  0  0
    4.7597   16.0375    5.0679 N   0  0  0  0  0  0  0  0  0  0  0  0
    6.8797   19.5649    5.4903 N   0  0  0  0  0  0  0  0  0  0  0  0
    6.1639   19.0329    6.5739 C   0  0  0  0  0  0  0  0  0  0  0  0
    5.4341   17.8314    6.4178 N   0  0  0  0  0  0  0  0  0  0  0  0
    5.4508   17.1938    5.2274 C   0  0  0  0  0  0  0  0  0  0  0  0
    6.1683   17.7047    4.1411 C   0  0  0  0  0  0  0  0  0  0  0  0
    6.8902   18.8916    4.2527 C   0  0  0  0  0  0  0  0  0  0  0  0
  1  3  1  0  0  0  0
  1  5  1  0  0  0  0
  1  6  2  0  0  0  0
  2  5  2  0  0  0  0
  2 11  1  0  0  0  0
  2  4  1  0  0  0  0
  6 10  1  0  0  0  0
  7  8  2  0  0  0  0
  7 12  1  0  0  0  0
  8  9  1  0  0  0  0
  9 10  2  0  0  0  0
 10 11  1  0  0  0  0
 11 12  2  0  0  0  0
M  END
>  <CHROM.1>
5.73053362,17.16653909,4.36078359,2.20367096,-0.93835539,-2.06547184

>  <Name>
ligand

>  <RI>
0

>  <Rbt.Current_Directory>
/home/itssahil/PROJECTS/Mol_Feturizer/Test_systems_manuscript/rnas/4lx5

>  <Rbt.Executable>
rbdock ($Id: //depot/dev/client3/rdock/2013.1/src/exe/rbdock.cxx#4 $)

>  <Rbt.Library>
libRbt.so (2013.1, Build901 2013/11/27)

>  <Rbt.Parameter_File>
/export/apps/rDock/src/rDock_2013.1_src/data/scripts/dock_solv.prm

>  <Rbt.Receptor>
prm/blind_docking_100.prm

>  <SCORE>
-15.0478

>  <SCORE.INTER>
-15.0478

>  <SCORE.INTER.CONST>
1

>  <SCORE.INTER.POLAR>
0

>  <SCORE.INTER.ROT>
0

>  <SCORE.INTER.SOLV>
16.0664

>  <SCORE.INTER.VDW>
-18.9873

>  <SCORE.INTER.norm>
-1.25398

>  <SCORE.INTRA>
0

>  <SCORE.INTRA.DIHEDRAL>
0

>  <SCORE.INTRA.DIHEDRAL.0>
0

>  <SCORE.INTRA.POLAR>
0

>  <SCORE.INTRA.POLAR.0>
0

>  <SCORE.INTRA.REPUL>
0

>  <SCORE.INTRA.REPUL.0>
0

>  <SCORE.INTRA.SOLV>
0

>  <SCORE.INTRA.SOLV.lig_0>
-48.1583

>  <SCORE.INTRA.VDW>
0

>  <SCORE.INTRA.VDW.0>
0

>  <SCORE.INTRA.norm>
0

>  <SCORE.RESTR>
0

>  <SCORE.RESTR.CAVITY>
0

>  <SCORE.RESTR.norm>
0

>  <SCORE.SYSTEM>
0

>  <SCORE.SYSTEM.CONST>
0

>  <SCORE.SYSTEM.DIHEDRAL>
0

>  <SCORE.SYSTEM.SOLV>
0

>  <SCORE.SYSTEM.norm>
0

>  <SCORE.heavy>
12

>  <SCORE.norm>
-1.25398

>  <RMSD>
3.024

$$$$
ligand
 OpenBabel02271912143D
libRbt.so/2013.1/901 2013/11/27
 12 13  0  0  0  0  0  0  0  0999 V2000
    4.7456   15.3953    3.8781 C   0  0  0  0  0  0  0  0  0  0  0  0
    6.1338   17.0091    2.9276 C   0  0  0  0  0  0  0  0  0  0  0  0
    4.0725   14.2549    3.7543 N   0  0  0  0  0  0  0  0  0  0  0  0
    6.8148   17.5289    1.9004 N   0  0  0  0  0  0  0  0  0  0  0  0
    5.4289   15.8753    2.8161 N   0  0  0  0  0  0  0  0  0  0  0  0
    4.7582   16.0390    5.0665 N   0  0  0  0  0  0  0  0  0  0  0  0
    6.8743   19.5684    5.4906 N   0  0  0  0  0  0  0  0  0  0  0  0
    6.1572   19.0365    6.5733 C   0  0  0  0  0  0  0  0  0  0  0  0
    5.4287   17.8342    6.4166 N   0  0  0  0  0  0  0  0  0  0  0  0
    5.4479   17.1959    5.2266 C   0  0  0  0  0  0  0  0  0  0  0  0
    6.1669   17.7069    4.1412 C   0  0  0  0  0  0  0  0  0  0  0  0
    6.8876   18.8945    4.2533 C   0  0  0  0  0  0  0  0  0  0  0  0
  1  3  1  0  0  0  0
  1  5  1  0  0  0  0
  1  6  2  0  0  0  0
  2  5  2  0  0  0  0
  2 11  1  0  0  0  0
  2  4  1  0  0  0  0
  6 10  1  0  0  0  0
  7  8  2  0  0  0  0
  7 12  1  0  0  0  0
  8  9  1  0  0  0  0
  9 10  2  0  0  0  0
 10 11  1  0  0  0  0
 11 12  2  0  0  0  0
M  END
>  <CHROM.1>
5.72920550,17.16844773,4.36044285,2.20041678,-0.93830359,-2.06866190

>  <Name>
ligand

>  <RI>
0

>  <Rbt.Current_Directory>
/home/itssahil/PROJECTS/Mol_Feturizer/Test_systems_manuscript/rnas/4lx5

>  <Rbt.Executable>
rbdock ($Id: //depot/dev/client3/rdock/2013.1/src/exe/rbdock.cxx#4 $)

>  <Rbt.Library>
libRbt.so (2013.1, Build901 2013/11/27)

>  <Rbt.Parameter_File>
/export/apps/rDock/src/rDock_2013.1_src/data/scripts/dock_solv.prm

>  <Rbt.Receptor>
prm/blind_docking_80.prm

>  <SCORE>
-15.0454

>  <SCORE.INTER>
-15.0454

>  <SCORE.INTER.CONST>
1

>  <SCORE.INTER.POLAR>
0

>  <SCORE.INTER.ROT>
0

>  <SCORE.INTER.SOLV>
16.0788

>  <SCORE.INTER.VDW>
-18.9899

>  <SCORE.INTER.norm>
-1.25378

>  <SCORE.INTRA>
0

>  <SCORE.INTRA.DIHEDRAL>
0

>  <SCORE.INTRA.DIHEDRAL.0>
0

>  <SCORE.INTRA.POLAR>
0

>  <SCORE.INTRA.POLAR.0>
0

>  <SCORE.INTRA.REPUL>
0

>  <SCORE.INTRA.REPUL.0>
0

>  <SCORE.INTRA.SOLV>
0

>  <SCORE.INTRA.SOLV.lig_0>
-48.1583

>  <SCORE.INTRA.VDW>
0

>  <SCORE.INTRA.VDW.0>
0

>  <SCORE.INTRA.norm>
0

>  <SCORE.RESTR>
0

>  <SCORE.RESTR.CAVITY>
0

>  <SCORE.RESTR.norm>
0

>  <SCORE.SYSTEM>
0

>  <SCORE.SYSTEM.CONST>
0

>  <SCORE.SYSTEM.DIHEDRAL>
0

>  <SCORE.SYSTEM.SOLV>
0

>  <SCORE.SYSTEM.norm>
0

>  <SCORE.heavy>
12

>  <SCORE.norm>
-1.25378

>  <RMSD>
3.024

$$$$
ligand
 OpenBabel02271912143D
libRbt.so/2013.1/901 2013/11/27
 12 13  0  0  0  0  0  0  0  0999 V2000
    4.7455   15.3848    3.8788 C   0  0  0  0  0  0  0  0  0  0  0  0
    6.1460   16.9834    2.9208 C   0  0  0  0  0  0  0  0  0  0  0  0
    4.0669   14.2469    3.7616 N   0  0  0  0  0  0  0  0  0  0  0  0
    6.8339   17.4912    1.8922 N   0  0  0  0  0  0  0  0  0  0  0  0
    5.4356   15.8525    2.8157 N   0  0  0  0  0  0  0  0  0  0  0  0
    4.7565   16.0382    5.0618 N   0  0  0  0  0  0  0  0  0  0  0  0
    6.8891   19.5601    5.4656 N   0  0  0  0  0  0  0  0  0  0  0  0
    6.1648   19.0408    6.5497 C   0  0  0  0  0  0  0  0  0  0  0  0
    5.4307   17.8411    6.3999 N   0  0  0  0  0  0  0  0  0  0  0  0
    5.4515   17.1929    5.2153 C   0  0  0  0  0  0  0  0  0  0  0  0
    6.1777   17.6911    4.1287 C   0  0  0  0  0  0  0  0  0  0  0  0
    6.9041   18.8758    4.2340 C   0  0  0  0  0  0  0  0  0  0  0  0
  1  3  1  0  0  0  0
  1  5  1  0  0  0  0
  1  6  2  0  0  0  0
  2  5  2  0  0  0  0
  2 11  1  0  0  0  0
  2  4  1  0  0  0  0
  6 10  1  0  0  0  0
  7  8  2  0  0  0  0
  7 12  1  0  0  0  0
  8  9  1  0  0  0  0
  9 10  2  0  0  0  0
 10 11  1  0  0  0  0
 11 12  2  0  0  0  0
M  END
>  <CHROM.1>
5.73627079,17.15677106,4.35056450,2.19847203,-0.93174227,-2.07851128

>  <Name>
ligand

>  <RI>
0

>  <Rbt.Current_Directory>
/home/itssahil/PROJECTS/Mol_Feturizer/Test_systems_manuscript/rnas/4lx5

>  <Rbt.Executable>
rbdock ($Id: //depot/dev/client3/rdock/2013.1/src/exe/rbdock.cxx#4 $)

>  <Rbt.Library>
libRbt.so (2013.1, Build901 2013/11/27)

>  <Rbt.Parameter_File>
/export/apps/rDock/src/rDock_2013.1_src/data/scripts/dock_solv.prm

>  <Rbt.Receptor>
prm/pocket_docking_5.prm

>  <SCORE>
-15.0312

>  <SCORE.INTER>
-15.0312

>  <SCORE.INTER.CONST>
1

>  <SCORE.INTER.POLAR>
0

>  <SCORE.INTER.ROT>
0

>  <SCORE.INTER.SOLV>
16.1839

>  <SCORE.INTER.VDW>
-19.0154

>  <SCORE.INTER.norm>
-1.2526

>  <SCORE.INTRA>
0

>  <SCORE.INTRA.DIHEDRAL>
0

>  <SCORE.INTRA.DIHEDRAL.0>
0

>  <SCORE.INTRA.POLAR>
0

>  <SCORE.INTRA.POLAR.0>
0

>  <SCORE.INTRA.REPUL>
0

>  <SCORE.INTRA.REPUL.0>
0

>  <SCORE.INTRA.SOLV>
0

>  <SCORE.INTRA.SOLV.lig_0>
-48.1583

>  <SCORE.INTRA.VDW>
0

>  <SCORE.INTRA.VDW.0>
0

>  <SCORE.INTRA.norm>
0

>  <SCORE.RESTR>
0

>  <SCORE.RESTR.CAVITY>
0

>  <SCORE.RESTR.norm>
0

>  <SCORE.SYSTEM>
0

>  <SCORE.SYSTEM.CONST>
0

>  <SCORE.SYSTEM.DIHEDRAL>
0

>  <SCORE.SYSTEM.SOLV>
0

>  <SCORE.SYSTEM.norm>
0

>  <SCORE.heavy>
12

>  <SCORE.norm>
-1.2526

>  <RMSD>
3.024

$$$$
ligand
 OpenBabel02271912143D
libRbt.so/2013.1/901 2013/11/27
 12 13  0  0  0  0  0  0  0  0999 V2000
    4.7345   15.3999    3.8784 C   0  0  0  0  0  0  0  0  0  0  0  0
    6.0962   17.0306    2.9184 C   0  0  0  0  0  0  0  0  0  0  0  0
    4.0693   14.2547    3.7572 N   0  0  0  0  0  0  0  0  0  0  0  0
    6.7588   17.5619    1.8851 N   0  0  0  0  0  0  0  0  0  0  0  0
    5.3993   15.8916    2.8100 N   0  0  0  0  0  0  0  0  0  0  0  0
    4.7579   16.0371    5.0701 N   0  0  0  0  0  0  0  0  0  0  0  0
    6.8501   19.5817    5.4857 N   0  0  0  0  0  0  0  0  0  0  0  0
    6.1522   19.0377    6.5750 C   0  0  0  0  0  0  0  0  0  0  0  0
    5.4317   17.8303    6.4213 N   0  0  0  0  0  0  0  0  0  0  0  0
    5.4401   17.1988    5.2275 C   0  0  0  0  0  0  0  0  0  0  0  0
    6.1400   17.7219    4.1354 C   0  0  0  0  0  0  0  0  0  0  0  0
    6.8522   18.9148    4.2446 C   0  0  0  0  0  0  0  0  0  0  0  0
  1  3  1  0  0  0  0
  1  5  1  0  0  0  0
  1  6  2  0  0  0  0
  2  5  2  0  0  0  0
  2 11  1  0  0  0  0
  2  4  1  0  0  0  0
  6 10  1  0  0  0  0
  7  8  2  0  0  0  0
  7 12  1  0  0  0  0
  8  9  1  0  0  0  0
  9 10  2  0  0  0  0
 10 11  1  0  0  0  0
 11 12  2  0  0  0  0
M  END
>  <CHROM.1>
5.70978669,17.17857314,4.35749260,2.21413774,-0.95205107,-2.05188952

>  <Name>
ligand

>  <RI>
0

>  <Rbt.Current_Directory>
/home/itssahil/PROJECTS/Mol_Feturizer/Test_systems_manuscript/rnas/4lx5

>  <Rbt.Executable>
rbdock ($Id: //depot/dev/client3/rdock/2013.1/src/exe/rbdock.cxx#4 $)

>  <Rbt.Library>
libRbt.so (2013.1, Build901 2013/11/27)

>  <Rbt.Parameter_File>
/export/apps/rDock/src/rDock_2013.1_src/data/scripts/dock_solv.prm

>  <Rbt.Receptor>
prm/pocket_docking_7.prm

>  <SCORE>
-14.9931

>  <SCORE.INTER>
-14.9931

>  <SCORE.INTER.CONST>
1

>  <SCORE.INTER.POLAR>
0

>  <SCORE.INTER.ROT>
0

>  <SCORE.INTER.SOLV>
15.9411

>  <SCORE.INTER.VDW>
-18.9091

>  <SCORE.INTER.norm>
-1.24943

>  <SCORE.INTRA>
0

>  <SCORE.INTRA.DIHEDRAL>
0

>  <SCORE.INTRA.DIHEDRAL.0>
0

>  <SCORE.INTRA.POLAR>
0

>  <SCORE.INTRA.POLAR.0>
0

>  <SCORE.INTRA.REPUL>
0

>  <SCORE.INTRA.REPUL.0>
0

>  <SCORE.INTRA.SOLV>
0

>  <SCORE.INTRA.SOLV.lig_0>
-48.1583

>  <SCORE.INTRA.VDW>
0

>  <SCORE.INTRA.VDW.0>
0

>  <SCORE.INTRA.norm>
0

>  <SCORE.RESTR>
0

>  <SCORE.RESTR.CAVITY>
0

>  <SCORE.RESTR.norm>
0

>  <SCORE.SYSTEM>
0

>  <SCORE.SYSTEM.CONST>
0

>  <SCORE.SYSTEM.DIHEDRAL>
0

>  <SCORE.SYSTEM.SOLV>
0

>  <SCORE.SYSTEM.norm>
0

>  <SCORE.heavy>
12

>  <SCORE.norm>
-1.24943

>  <RMSD>
3.024

$$$$
ligand
 OpenBabel02271912143D
libRbt.so/2013.1/901 2013/11/27
 12 13  0  0  0  0  0  0  0  0999 V2000
    4.7563   15.3943    3.8989 C   0  0  0  0  0  0  0  0  0  0  0  0
    6.1159   17.0056    2.9038 C   0  0  0  0  0  0  0  0  0  0  0  0
    4.0880   14.2487    3.8008 N   0  0  0  0  0  0  0  0  0  0  0  0
    6.7736   17.5180    1.8579 N   0  0  0  0  0  0  0  0  0  0  0  0
    5.4159   15.8666    2.8186 N   0  0  0  0  0  0  0  0  0  0  0  0
    4.7880   16.0513    5.0796 N   0  0  0  0  0  0  0  0  0  0  0  0
    6.8901   19.5978    5.4234 N   0  0  0  0  0  0  0  0  0  0  0  0
    6.1974   19.0737    6.5257 C   0  0  0  0  0  0  0  0  0  0  0  0
    5.4735   17.8654    6.3965 N   0  0  0  0  0  0  0  0  0  0  0  0
    5.4735   17.2141    5.2135 C   0  0  0  0  0  0  0  0  0  0  0  0
    6.1682   17.7171    4.1087 C   0  0  0  0  0  0  0  0  0  0  0  0
    6.8836   18.9102    4.1937 C   0  0  0  0  0  0  0  0  0  0  0  0
  1  3  1  0  0  0  0
  1  5  1  0  0  0  0
  1  6  2  0  0  0  0
  2  5  2  0  0  0  0
  2 11  1  0  0  0  0
  2  4  1  0  0  0  0
  6 10  1  0  0  0  0
  7  8  2  0  0  0  0
  7 12  1  0  0  0  0
  8  9  1  0  0  0  0
  9 10  2  0  0  0  0
 10 11  1  0  0  0  0
 11 12  2  0  0  0  0
M  END
>  <CHROM.1>
5.73815875,17.17858330,4.34239195,2.22474349,-0.95283564,-2.06004296

>  <Name>
ligand

>  <RI>
0

>  <Rbt.Current_Directory>
/home/itssahil/PROJECTS/Mol_Feturizer/Test_systems_manuscript/rnas/4lx5

>  <Rbt.Executable>
rbdock ($Id: //depot/dev/client3/rdock/2013.1/src/exe/rbdock.cxx#4 $)

>  <Rbt.Library>
libRbt.so (2013.1, Build901 2013/11/27)

>  <Rbt.Parameter_File>
/export/apps/rDock/src/rDock_2013.1_src/data/scripts/dock_solv.prm

>  <Rbt.Receptor>
prm/pocket_docking_7.prm

>  <SCORE>
-15.0115

>  <SCORE.INTER>
-15.0115

>  <SCORE.INTER.CONST>
1

>  <SCORE.INTER.POLAR>
0

>  <SCORE.INTER.ROT>
0

>  <SCORE.INTER.SOLV>
16.1888

>  <SCORE.INTER.VDW>
-19.004

>  <SCORE.INTER.norm>
-1.25096

>  <SCORE.INTRA>
0

>  <SCORE.INTRA.DIHEDRAL>
0

>  <SCORE.INTRA.DIHEDRAL.0>
0

>  <SCORE.INTRA.POLAR>
0

>  <SCORE.INTRA.POLAR.0>
0

>  <SCORE.INTRA.REPUL>
0

>  <SCORE.INTRA.REPUL.0>
0

>  <SCORE.INTRA.SOLV>
0

>  <SCORE.INTRA.SOLV.lig_0>
-48.1583

>  <SCORE.INTRA.VDW>
0

>  <SCORE.INTRA.VDW.0>
0

>  <SCORE.INTRA.norm>
0

>  <SCORE.RESTR>
0

>  <SCORE.RESTR.CAVITY>
0

>  <SCORE.RESTR.norm>
0

>  <SCORE.SYSTEM>
0

>  <SCORE.SYSTEM.CONST>
0

>  <SCORE.SYSTEM.DIHEDRAL>
0

>  <SCORE.SYSTEM.SOLV>
0

>  <SCORE.SYSTEM.norm>
0

>  <SCORE.heavy>
12

>  <SCORE.norm>
-1.25096

>  <RMSD>
3.024

$$$$
ligand
 OpenBabel02271912143D
libRbt.so/2013.1/901 2013/11/27
 12 13  0  0  0  0  0  0  0  0999 V2000
    4.7451   15.4261    3.8787 C   0  0  0  0  0  0  0  0  0  0  0  0
    6.0884   17.0843    2.9400 C   0  0  0  0  0  0  0  0  0  0  0  0
    4.0914   14.2759    3.7421 N   0  0  0  0  0  0  0  0  0  0  0  0
    6.7437   17.6370    1.9134 N   0  0  0  0  0  0  0  0  0  0  0  0
    5.4029   15.9399    2.8164 N   0  0  0  0  0  0  0  0  0  0  0  0
    4.7639   16.0463    5.0794 N   0  0  0  0  0  0  0  0  0  0  0  0
    6.8203   19.6060    5.5424 N   0  0  0  0  0  0  0  0  0  0  0  0
    6.1299   19.0394    6.6248 C   0  0  0  0  0  0  0  0  0  0  0  0
    5.4215   17.8269    6.4550 N   0  0  0  0  0  0  0  0  0  0  0  0
    5.4344   17.2127    5.2523 C   0  0  0  0  0  0  0  0  0  0  0  0
    6.1271   17.7585    4.1667 C   0  0  0  0  0  0  0  0  0  0  0  0
    6.8272   18.9570    4.2918 C   0  0  0  0  0  0  0  0  0  0  0  0
  1  3  1  0  0  0  0
  1  5  1  0  0  0  0
  1  6  2  0  0  0  0
  2  5  2  0  0  0  0
  2 11  1  0  0  0  0
  2  4  1  0  0  0  0
  6 10  1  0  0  0  0
  7  8  2  0  0  0  0
  7 12  1  0  0  0  0
  8  9  1  0  0  0  0
  9 10  2  0  0  0  0
 10 11  1  0  0  0  0
 11 12  2  0  0  0  0
M  END
>  <CHROM.1>
5.70284551,17.20765962,4.38164471,2.20844202,-0.96192507,-2.04224181

>  <Name>
ligand

>  <RI>
0

>  <Rbt.Current_Directory>
/home/itssahil/PROJECTS/Mol_Feturizer/Test_systems_manuscript/rnas/4lx5

>  <Rbt.Executable>
rbdock ($Id: //depot/dev/client3/rdock/2013.1/src/exe/rbdock.cxx#4 $)

>  <Rbt.Library>
libRbt.so (2013.1, Build901 2013/11/27)

>  <Rbt.Parameter_File>
/export/apps/rDock/src/rDock_2013.1_src/data/scripts/dock_solv.prm

>  <Rbt.Receptor>
prm/pocket_docking_8.prm

>  <SCORE>
-15.0858

>  <SCORE.INTER>
-15.0858

>  <SCORE.INTER.CONST>
1

>  <SCORE.INTER.POLAR>
0

>  <SCORE.INTER.ROT>
0

>  <SCORE.INTER.SOLV>
15.9748

>  <SCORE.INTER.VDW>
-18.9822

>  <SCORE.INTER.norm>
-1.25715

>  <SCORE.INTRA>
0

>  <SCORE.INTRA.DIHEDRAL>
0

>  <SCORE.INTRA.DIHEDRAL.0>
0

>  <SCORE.INTRA.POLAR>
0

>  <SCORE.INTRA.POLAR.0>
0

>  <SCORE.INTRA.REPUL>
0

>  <SCORE.INTRA.REPUL.0>
0

>  <SCORE.INTRA.SOLV>
0

>  <SCORE.INTRA.SOLV.lig_0>
-48.1583

>  <SCORE.INTRA.VDW>
0

>  <SCORE.INTRA.VDW.0>
0

>  <SCORE.INTRA.norm>
0

>  <SCORE.RESTR>
0

>  <SCORE.RESTR.CAVITY>
0

>  <SCORE.RESTR.norm>
0

>  <SCORE.SYSTEM>
0

>  <SCORE.SYSTEM.CONST>
0

>  <SCORE.SYSTEM.DIHEDRAL>
0

>  <SCORE.SYSTEM.SOLV>
0

>  <SCORE.SYSTEM.norm>
0

>  <SCORE.heavy>
12

>  <SCORE.norm>
-1.25715

>  <RMSD>
3.024

$$$$
ligand
 OpenBabel02271912143D
libRbt.so/2013.1/901 2013/11/27
 12 13  0  0  0  0  0  0  0  0999 V2000
    4.7431   15.3898    3.8804 C   0  0  0  0  0  0  0  0  0  0  0  0
    6.1304   17.0033    2.9281 C   0  0  0  0  0  0  0  0  0  0  0  0
    4.0675   14.2509    3.7566 N   0  0  0  0  0  0  0  0  0  0  0  0
    6.8084   17.5241    1.8995 N   0  0  0  0  0  0  0  0  0  0  0  0
    5.4231   15.8710    2.8168 N   0  0  0  0  0  0  0  0  0  0  0  0
    4.7612   16.0309    5.0701 N   0  0  0  0  0  0  0  0  0  0  0  0
    6.8849   19.5558    5.4938 N   0  0  0  0  0  0  0  0  0  0  0  0
    6.1710   19.0227    6.5780 C   0  0  0  0  0  0  0  0  0  0  0  0
    5.4399   17.8221    6.4215 N   0  0  0  0  0  0  0  0  0  0  0  0
    5.4535   17.1863    5.2300 C   0  0  0  0  0  0  0  0  0  0  0  0
    6.1693   17.6984    4.1431 C   0  0  0  0  0  0  0  0  0  0  0  0
    6.8924   18.8845    4.2551 C   0  0  0  0  0  0  0  0  0  0  0  0
  1  3  1  0  0  0  0
  1  5  1  0  0  0  0
  1  6  2  0  0  0  0
  2  5  2  0  0  0  0
  2 11  1  0  0  0  0
  2  4  1  0  0  0  0
  6 10  1  0  0  0  0
  7  8  2  0  0  0  0
  7 12  1  0  0  0  0
  8  9  1  0  0  0  0
  9 10  2  0  0  0  0
 10 11  1  0  0  0  0
 11 12  2  0  0  0  0
M  END
>  <CHROM.1>
5.73149621,17.16024979,4.36280250,2.20739658,-0.93857909,-2.06087482

>  <Name>
ligand

>  <RI>
0

>  <Rbt.Current_Directory>
/home/itssahil/PROJECTS/Mol_Feturizer/Test_systems_manuscript/rnas/4lx5

>  <Rbt.Executable>
rbdock ($Id: //depot/dev/client3/rdock/2013.1/src/exe/rbdock.cxx#4 $)

>  <Rbt.Library>
libRbt.so (2013.1, Build901 2013/11/27)

>  <Rbt.Parameter_File>
/export/apps/rDock/src/rDock_2013.1_src/data/scripts/dock_solv.prm

>  <Rbt.Receptor>
prm/blind_docking_60.prm

>  <SCORE>
-15.0507

>  <SCORE.INTER>
-15.0507

>  <SCORE.INTER.CONST>
1

>  <SCORE.INTER.POLAR>
0

>  <SCORE.INTER.ROT>
0

>  <SCORE.INTER.SOLV>
16.0485

>  <SCORE.INTER.VDW>
-18.9833

>  <SCORE.INTER.norm>
-1.25423

>  <SCORE.INTRA>
0

>  <SCORE.INTRA.DIHEDRAL>
0

>  <SCORE.INTRA.DIHEDRAL.0>
0

>  <SCORE.INTRA.POLAR>
0

>  <SCORE.INTRA.POLAR.0>
0

>  <SCORE.INTRA.REPUL>
0

>  <SCORE.INTRA.REPUL.0>
0

>  <SCORE.INTRA.SOLV>
0

>  <SCORE.INTRA.SOLV.lig_0>
-48.1583

>  <SCORE.INTRA.VDW>
0

>  <SCORE.INTRA.VDW.0>
0

>  <SCORE.INTRA.norm>
0

>  <SCORE.RESTR>
0

>  <SCORE.RESTR.CAVITY>
0

>  <SCORE.RESTR.norm>
0

>  <SCORE.SYSTEM>
0

>  <SCORE.SYSTEM.CONST>
0

>  <SCORE.SYSTEM.DIHEDRAL>
0

>  <SCORE.SYSTEM.SOLV>
0

>  <SCORE.SYSTEM.norm>
0

>  <SCORE.heavy>
12

>  <SCORE.norm>
-1.25423

>  <RMSD>
3.025

$$$$
ligand
 OpenBabel02271912143D
libRbt.so/2013.1/901 2013/11/27
 12 13  0  0  0  0  0  0  0  0999 V2000
    4.7446   15.3981    3.8817 C   0  0  0  0  0  0  0  0  0  0  0  0
    6.1362   17.0092    2.9317 C   0  0  0  0  0  0  0  0  0  0  0  0
    4.0709   14.2580    3.7583 N   0  0  0  0  0  0  0  0  0  0  0  0
    6.8200   17.5268    1.9052 N   0  0  0  0  0  0  0  0  0  0  0  0
    5.4307   15.8758    2.8205 N   0  0  0  0  0  0  0  0  0  0  0  0
    4.7548   16.0439    5.0690 N   0  0  0  0  0  0  0  0  0  0  0  0
    6.8724   19.5726    5.4919 N   0  0  0  0  0  0  0  0  0  0  0  0
    6.1523   19.0430    6.5739 C   0  0  0  0  0  0  0  0  0  0  0  0
    5.4234   17.8410    6.4175 N   0  0  0  0  0  0  0  0  0  0  0  0
    5.4450   17.2006    5.2287 C   0  0  0  0  0  0  0  0  0  0  0  0
    6.1669   17.7092    4.1441 C   0  0  0  0  0  0  0  0  0  0  0  0
    6.8881   18.8965    4.2559 C   0  0  0  0  0  0  0  0  0  0  0  0
  1  3  1  0  0  0  0
  1  5  1  0  0  0  0
  1  6  2  0  0  0  0
  2  5  2  0  0  0  0
  2 11  1  0  0  0  0
  2  4  1  0  0  0  0
  6 10  1  0  0  0  0
  7  8  2  0  0  0  0
  7 12  1  0  0  0  0
  8  9  1  0  0  0  0
  9 10  2  0  0  0  0
 10 11  1  0  0  0  0
 11 12  2  0  0  0  0
M  END
>  <CHROM.1>
5.72828992,17.17143685,4.36327041,2.19746814,-0.93654564,-2.07279236

>  <Name>
ligand

>  <RI>
0

>  <Rbt.Current_Directory>
/home/itssahil/PROJECTS/Mol_Feturizer/Test_systems_manuscript/rnas/4lx5

>  <Rbt.Executable>
rbdock ($Id: //depot/dev/client3/rdock/2013.1/src/exe/rbdock.cxx#4 $)

>  <Rbt.Library>
libRbt.so (2013.1, Build901 2013/11/27)

>  <Rbt.Parameter_File>
/export/apps/rDock/src/rDock_2013.1_src/data/scripts/dock_solv.prm

>  <Rbt.Receptor>
prm/pocket_docking_3.prm

>  <SCORE>
-15.0351

>  <SCORE.INTER>
-15.0351

>  <SCORE.INTER.CONST>
1

>  <SCORE.INTER.POLAR>
0

>  <SCORE.INTER.ROT>
0

>  <SCORE.INTER.SOLV>
16.0842

>  <SCORE.INTER.VDW>
-18.9848

>  <SCORE.INTER.norm>
-1.25292

>  <SCORE.INTRA>
0

>  <SCORE.INTRA.DIHEDRAL>
0

>  <SCORE.INTRA.DIHEDRAL.0>
0

>  <SCORE.INTRA.POLAR>
0

>  <SCORE.INTRA.POLAR.0>
0

>  <SCORE.INTRA.REPUL>
0

>  <SCORE.INTRA.REPUL.0>
0

>  <SCORE.INTRA.SOLV>
0

>  <SCORE.INTRA.SOLV.lig_0>
-48.1583

>  <SCORE.INTRA.VDW>
0

>  <SCORE.INTRA.VDW.0>
0

>  <SCORE.INTRA.norm>
0

>  <SCORE.RESTR>
0

>  <SCORE.RESTR.CAVITY>
0

>  <SCORE.RESTR.norm>
0

>  <SCORE.SYSTEM>
0

>  <SCORE.SYSTEM.CONST>
0

>  <SCORE.SYSTEM.DIHEDRAL>
0

>  <SCORE.SYSTEM.SOLV>
0

>  <SCORE.SYSTEM.norm>
0

>  <SCORE.heavy>
12

>  <SCORE.norm>
-1.25292

>  <RMSD>
3.025

$$$$
ligand
 OpenBabel02271912143D
libRbt.so/2013.1/901 2013/11/27
 12 13  0  0  0  0  0  0  0  0999 V2000
    4.7622   15.3602    3.8925 C   0  0  0  0  0  0  0  0  0  0  0  0
    6.1105   16.9888    2.9103 C   0  0  0  0  0  0  0  0  0  0  0  0
    4.1016   14.2108    3.7851 N   0  0  0  0  0  0  0  0  0  0  0  0
    6.7645   17.5141    1.8686 N   0  0  0  0  0  0  0  0  0  0  0  0
    5.4183   15.8457    2.8159 N   0  0  0  0  0  0  0  0  0  0  0  0
    4.7895   16.0078    5.0784 N   0  0  0  0  0  0  0  0  0  0  0  0
    6.8673   19.5657    5.4509 N   0  0  0  0  0  0  0  0  0  0  0  0
    6.1784   19.0279    6.5489 C   0  0  0  0  0  0  0  0  0  0  0  0
    5.4627   17.8158    6.4100 N   0  0  0  0  0  0  0  0  0  0  0  0
    5.4670   17.1741    5.2217 C   0  0  0  0  0  0  0  0  0  0  0  0
    6.1581   17.6908    4.1210 C   0  0  0  0  0  0  0  0  0  0  0  0
    6.8653   18.8880    4.2156 C   0  0  0  0  0  0  0  0  0  0  0  0
  1  3  1  0  0  0  0
  1  5  1  0  0  0  0
  1  6  2  0  0  0  0
  2  5  2  0  0  0  0
  2 11  1  0  0  0  0
  2  4  1  0  0  0  0
  6 10  1  0  0  0  0
  7  8  2  0  0  0  0
  7 12  1  0  0  0  0
  8  9  1  0  0  0  0
  9 10  2  0  0  0  0
 10 11  1  0  0  0  0
 11 12  2  0  0  0  0
M  END
>  <CHROM.1>
5.73178128,17.14746458,4.35030434,2.21934250,-0.95894196,-2.05634327

>  <Name>
ligand

>  <RI>
0

>  <Rbt.Current_Directory>
/home/itssahil/PROJECTS/Mol_Feturizer/Test_systems_manuscript/rnas/4lx5

>  <Rbt.Executable>
rbdock ($Id: //depot/dev/client3/rdock/2013.1/src/exe/rbdock.cxx#4 $)

>  <Rbt.Library>
libRbt.so (2013.1, Build901 2013/11/27)

>  <Rbt.Parameter_File>
/export/apps/rDock/src/rDock_2013.1_src/data/scripts/dock_solv.prm

>  <Rbt.Receptor>
prm/pocket_docking_4.prm

>  <SCORE>
-15.0308

>  <SCORE.INTER>
-15.0308

>  <SCORE.INTER.CONST>
1

>  <SCORE.INTER.POLAR>
0

>  <SCORE.INTER.ROT>
0

>  <SCORE.INTER.SOLV>
16.2083

>  <SCORE.INTER.VDW>
-19.0233

>  <SCORE.INTER.norm>
-1.25256

>  <SCORE.INTRA>
0

>  <SCORE.INTRA.DIHEDRAL>
0

>  <SCORE.INTRA.DIHEDRAL.0>
0

>  <SCORE.INTRA.POLAR>
0

>  <SCORE.INTRA.POLAR.0>
0

>  <SCORE.INTRA.REPUL>
0

>  <SCORE.INTRA.REPUL.0>
0

>  <SCORE.INTRA.SOLV>
0

>  <SCORE.INTRA.SOLV.lig_0>
-48.1583

>  <SCORE.INTRA.VDW>
0

>  <SCORE.INTRA.VDW.0>
0

>  <SCORE.INTRA.norm>
0

>  <SCORE.RESTR>
0

>  <SCORE.RESTR.CAVITY>
0

>  <SCORE.RESTR.norm>
0

>  <SCORE.SYSTEM>
0

>  <SCORE.SYSTEM.CONST>
0

>  <SCORE.SYSTEM.DIHEDRAL>
0

>  <SCORE.SYSTEM.SOLV>
0

>  <SCORE.SYSTEM.norm>
0

>  <SCORE.heavy>
12

>  <SCORE.norm>
-1.25256

>  <RMSD>
3.025

$$$$
ligand
 OpenBabel02271912143D
libRbt.so/2013.1/901 2013/11/27
 12 13  0  0  0  0  0  0  0  0999 V2000
    4.7811   15.4488    3.8931 C   0  0  0  0  0  0  0  0  0  0  0  0
    6.1299   17.1058    2.9605 C   0  0  0  0  0  0  0  0  0  0  0  0
    4.1308   14.2968    3.7550 N   0  0  0  0  0  0  0  0  0  0  0  0
    6.7937   17.6558    1.9379 N   0  0  0  0  0  0  0  0  0  0  0  0
    5.4478   15.9596    2.8350 N   0  0  0  0  0  0  0  0  0  0  0  0
    4.7876   16.0737    5.0915 N   0  0  0  0  0  0  0  0  0  0  0  0
    6.8330   19.6391    5.5597 N   0  0  0  0  0  0  0  0  0  0  0  0
    6.1336   19.0753    6.6379 C   0  0  0  0  0  0  0  0  0  0  0  0
    5.4291   17.8608    6.4662 N   0  0  0  0  0  0  0  0  0  0  0  0
    5.4542   17.2420    5.2661 C   0  0  0  0  0  0  0  0  0  0  0  0
    6.1559   17.7849    4.1849 C   0  0  0  0  0  0  0  0  0  0  0  0
    6.8526   18.9852    4.3118 C   0  0  0  0  0  0  0  0  0  0  0  0
  1  3  1  0  0  0  0
  1  5  1  0  0  0  0
  1  6  2  0  0  0  0
  2  5  2  0  0  0  0
  2 11  1  0  0  0  0
  2  4  1  0  0  0  0
  6 10  1  0  0  0  0
  7  8  2  0  0  0  0
  7 12  1  0  0  0  0
  8  9  1  0  0  0  0
  9 10  2  0  0  0  0
 10 11  1  0  0  0  0
 11 12  2  0  0  0  0
M  END
>  <CHROM.1>
5.73077219,17.23408699,4.39800793,2.19255606,-0.95931593,-2.05916336

>  <Name>
ligand

>  <RI>
0

>  <Rbt.Current_Directory>
/home/itssahil/PROJECTS/Mol_Feturizer/Test_systems_manuscript/rnas/4lx5

>  <Rbt.Executable>
rbdock ($Id: //depot/dev/client3/rdock/2013.1/src/exe/rbdock.cxx#4 $)

>  <Rbt.Library>
libRbt.so (2013.1, Build901 2013/11/27)

>  <Rbt.Parameter_File>
/export/apps/rDock/src/rDock_2013.1_src/data/scripts/dock_solv.prm

>  <Rbt.Receptor>
prm/pocket_docking_4.prm

>  <SCORE>
-15.0567

>  <SCORE.INTER>
-15.0567

>  <SCORE.INTER.CONST>
1

>  <SCORE.INTER.POLAR>
0

>  <SCORE.INTER.ROT>
0

>  <SCORE.INTER.SOLV>
16.1977

>  <SCORE.INTER.VDW>
-19.037

>  <SCORE.INTER.norm>
-1.25473

>  <SCORE.INTRA>
0

>  <SCORE.INTRA.DIHEDRAL>
0

>  <SCORE.INTRA.DIHEDRAL.0>
0

>  <SCORE.INTRA.POLAR>
0

>  <SCORE.INTRA.POLAR.0>
0

>  <SCORE.INTRA.REPUL>
0

>  <SCORE.INTRA.REPUL.0>
0

>  <SCORE.INTRA.SOLV>
0

>  <SCORE.INTRA.SOLV.lig_0>
-48.1583

>  <SCORE.INTRA.VDW>
0

>  <SCORE.INTRA.VDW.0>
0

>  <SCORE.INTRA.norm>
0

>  <SCORE.RESTR>
0

>  <SCORE.RESTR.CAVITY>
0

>  <SCORE.RESTR.norm>
0

>  <SCORE.SYSTEM>
0

>  <SCORE.SYSTEM.CONST>
0

>  <SCORE.SYSTEM.DIHEDRAL>
0

>  <SCORE.SYSTEM.SOLV>
0

>  <SCORE.SYSTEM.norm>
0

>  <SCORE.heavy>
12

>  <SCORE.norm>
-1.25473

>  <RMSD>
3.025

$$$$
ligand
 OpenBabel02271912143D
libRbt.so/2013.1/901 2013/11/27
 12 13  0  0  0  0  0  0  0  0999 V2000
    4.7656   15.4592    3.8882 C   0  0  0  0  0  0  0  0  0  0  0  0
    6.1311   17.1075    2.9643 C   0  0  0  0  0  0  0  0  0  0  0  0
    4.1047   14.3140    3.7443 N   0  0  0  0  0  0  0  0  0  0  0  0
    6.8013   17.6557    1.9448 N   0  0  0  0  0  0  0  0  0  0  0  0
    5.4383   15.9684    2.8330 N   0  0  0  0  0  0  0  0  0  0  0  0
    4.7766   16.0788    5.0892 N   0  0  0  0  0  0  0  0  0  0  0  0
    6.8549   19.6227    5.5753 N   0  0  0  0  0  0  0  0  0  0  0  0
    6.1489   19.0609    6.6502 C   0  0  0  0  0  0  0  0  0  0  0  0
    5.4332   17.8539    6.4725 N   0  0  0  0  0  0  0  0  0  0  0  0
    5.4540   17.2400    5.2697 C   0  0  0  0  0  0  0  0  0  0  0  0
    6.1621   17.7810    4.1916 C   0  0  0  0  0  0  0  0  0  0  0  0
    6.8699   18.9741    4.3246 C   0  0  0  0  0  0  0  0  0  0  0  0
  1  3  1  0  0  0  0
  1  5  1  0  0  0  0
  1  6  2  0  0  0  0
  2  5  2  0  0  0  0
  2 11  1  0  0  0  0
  2  4  1  0  0  0  0
  6 10  1  0  0  0  0
  7  8  2  0  0  0  0
  7 12  1  0  0  0  0
  8  9  1  0  0  0  0
  9 10  2  0  0  0  0
 10 11  1  0  0  0  0
 11 12  2  0  0  0  0
M  END
>  <CHROM.1>
5.73147600,17.23328769,4.40189020,2.19836029,-0.95042665,-2.05006411

>  <Name>
ligand

>  <RI>
0

>  <Rbt.Current_Directory>
/home/itssahil/PROJECTS/Mol_Feturizer/Test_systems_manuscript/rnas/4lx5

>  <Rbt.Executable>
rbdock ($Id: //depot/dev/client3/rdock/2013.1/src/exe/rbdock.cxx#4 $)

>  <Rbt.Library>
libRbt.so (2013.1, Build901 2013/11/27)

>  <Rbt.Parameter_File>
/export/apps/rDock/src/rDock_2013.1_src/data/scripts/dock_solv.prm

>  <Rbt.Receptor>
prm/pocket_docking_4.prm

>  <SCORE>
-15.1006

>  <SCORE.INTER>
-15.1006

>  <SCORE.INTER.CONST>
1

>  <SCORE.INTER.POLAR>
0

>  <SCORE.INTER.ROT>
0

>  <SCORE.INTER.SOLV>
16.0509

>  <SCORE.INTER.VDW>
-19.0174

>  <SCORE.INTER.norm>
-1.25839

>  <SCORE.INTRA>
0

>  <SCORE.INTRA.DIHEDRAL>
0

>  <SCORE.INTRA.DIHEDRAL.0>
0

>  <SCORE.INTRA.POLAR>
0

>  <SCORE.INTRA.POLAR.0>
0

>  <SCORE.INTRA.REPUL>
0

>  <SCORE.INTRA.REPUL.0>
0

>  <SCORE.INTRA.SOLV>
0

>  <SCORE.INTRA.SOLV.lig_0>
-48.1583

>  <SCORE.INTRA.VDW>
0

>  <SCORE.INTRA.VDW.0>
0

>  <SCORE.INTRA.norm>
0

>  <SCORE.RESTR>
0

>  <SCORE.RESTR.CAVITY>
0

>  <SCORE.RESTR.norm>
0

>  <SCORE.SYSTEM>
0

>  <SCORE.SYSTEM.CONST>
0

>  <SCORE.SYSTEM.DIHEDRAL>
0

>  <SCORE.SYSTEM.SOLV>
0

>  <SCORE.SYSTEM.norm>
0

>  <SCORE.heavy>
12

>  <SCORE.norm>
-1.25839

>  <RMSD>
3.025

$$$$
ligand
 OpenBabel02271912143D
libRbt.so/2013.1/901 2013/11/27
 12 13  0  0  0  0  0  0  0  0999 V2000
    4.7444   15.3920    3.8801 C   0  0  0  0  0  0  0  0  0  0  0  0
    6.1315   17.0056    2.9276 C   0  0  0  0  0  0  0  0  0  0  0  0
    4.0694   14.2527    3.7567 N   0  0  0  0  0  0  0  0  0  0  0  0
    6.8097   17.5262    1.8990 N   0  0  0  0  0  0  0  0  0  0  0  0
    5.4247   15.8729    2.8166 N   0  0  0  0  0  0  0  0  0  0  0  0
    4.7616   16.0338    5.0694 N   0  0  0  0  0  0  0  0  0  0  0  0
    6.8835   19.5600    5.4921 N   0  0  0  0  0  0  0  0  0  0  0  0
    6.1692   19.0272    6.5763 C   0  0  0  0  0  0  0  0  0  0  0  0
    5.4388   17.8261    6.4202 N   0  0  0  0  0  0  0  0  0  0  0  0
    5.4533   17.1897    5.2291 C   0  0  0  0  0  0  0  0  0  0  0  0
    6.1694   17.7015    4.1422 C   0  0  0  0  0  0  0  0  0  0  0  0
    6.8919   18.8880    4.2538 C   0  0  0  0  0  0  0  0  0  0  0  0
  1  3  1  0  0  0  0
  1  5  1  0  0  0  0
  1  6  2  0  0  0  0
  2  5  2  0  0  0  0
  2 11  1  0  0  0  0
  2  4  1  0  0  0  0
  6 10  1  0  0  0  0
  7  8  2  0  0  0  0
  7 12  1  0  0  0  0
  8  9  1  0  0  0  0
  9 10  2  0  0  0  0
 10 11  1  0  0  0  0
 11 12  2  0  0  0  0
M  END
>  <CHROM.1>
5.73172648,17.16321042,4.36198230,2.20627927,-0.93876757,-2.06236017

>  <Name>
ligand

>  <RI>
0

>  <Rbt.Current_Directory>
/home/itssahil/PROJECTS/Mol_Feturizer/Test_systems_manuscript/rnas/4lx5

>  <Rbt.Executable>
rbdock ($Id: //depot/dev/client3/rdock/2013.1/src/exe/rbdock.cxx#4 $)

>  <Rbt.Library>
libRbt.so (2013.1, Build901 2013/11/27)

>  <Rbt.Parameter_File>
/export/apps/rDock/src/rDock_2013.1_src/data/scripts/dock_solv.prm

>  <Rbt.Receptor>
prm/pocket_docking_5.prm

>  <SCORE>
-15.0499

>  <SCORE.INTER>
-15.0499

>  <SCORE.INTER.CONST>
1

>  <SCORE.INTER.POLAR>
0

>  <SCORE.INTER.ROT>
0

>  <SCORE.INTER.SOLV>
16.0586

>  <SCORE.INTER.VDW>
-18.9862

>  <SCORE.INTER.norm>
-1.25416

>  <SCORE.INTRA>
0

>  <SCORE.INTRA.DIHEDRAL>
0

>  <SCORE.INTRA.DIHEDRAL.0>
0

>  <SCORE.INTRA.POLAR>
0

>  <SCORE.INTRA.POLAR.0>
0

>  <SCORE.INTRA.REPUL>
0

>  <SCORE.INTRA.REPUL.0>
0

>  <SCORE.INTRA.SOLV>
0

>  <SCORE.INTRA.SOLV.lig_0>
-48.1583

>  <SCORE.INTRA.VDW>
0

>  <SCORE.INTRA.VDW.0>
0

>  <SCORE.INTRA.norm>
0

>  <SCORE.RESTR>
0

>  <SCORE.RESTR.CAVITY>
0

>  <SCORE.RESTR.norm>
0

>  <SCORE.SYSTEM>
0

>  <SCORE.SYSTEM.CONST>
0

>  <SCORE.SYSTEM.DIHEDRAL>
0

>  <SCORE.SYSTEM.SOLV>
0

>  <SCORE.SYSTEM.norm>
0

>  <SCORE.heavy>
12

>  <SCORE.norm>
-1.25416

>  <RMSD>
3.025

$$$$
ligand
 OpenBabel02271912143D
libRbt.so/2013.1/901 2013/11/27
 12 13  0  0  0  0  0  0  0  0999 V2000
    4.7425   15.4357    3.8821 C   0  0  0  0  0  0  0  0  0  0  0  0
    6.0946   17.0855    2.9414 C   0  0  0  0  0  0  0  0  0  0  0  0
    4.0817   14.2895    3.7466 N   0  0  0  0  0  0  0  0  0  0  0  0
    6.7521   17.6341    1.9139 N   0  0  0  0  0  0  0  0  0  0  0  0
    5.4022   15.9452    2.8189 N   0  0  0  0  0  0  0  0  0  0  0  0
    4.7665   16.0561    5.0826 N   0  0  0  0  0  0  0  0  0  0  0  0
    6.8450   19.6034    5.5423 N   0  0  0  0  0  0  0  0  0  0  0  0
    6.1524   19.0412    6.6257 C   0  0  0  0  0  0  0  0  0  0  0  0
    5.4366   17.8330    6.4570 N   0  0  0  0  0  0  0  0  0  0  0  0
    5.4442   17.2184    5.2544 C   0  0  0  0  0  0  0  0  0  0  0  0
    6.1389   17.7598    4.1679 C   0  0  0  0  0  0  0  0  0  0  0  0
    6.8464   18.9541    4.2919 C   0  0  0  0  0  0  0  0  0  0  0  0
  1  3  1  0  0  0  0
  1  5  1  0  0  0  0
  1  6  2  0  0  0  0
  2  5  2  0  0  0  0
  2 11  1  0  0  0  0
  2  4  1  0  0  0  0
  6 10  1  0  0  0  0
  7  8  2  0  0  0  0
  7 12  1  0  0  0  0
  8  9  1  0  0  0  0
  9 10  2  0  0  0  0
 10 11  1  0  0  0  0
 11 12  2  0  0  0  0
M  END
>  <CHROM.1>
5.71159794,17.21157496,4.38348829,2.21507544,-0.95708659,-2.03704368

>  <Name>
ligand

>  <RI>
0

>  <Rbt.Current_Directory>
/home/itssahil/PROJECTS/Mol_Feturizer/Test_systems_manuscript/rnas/4lx5

>  <Rbt.Executable>
rbdock ($Id: //depot/dev/client3/rdock/2013.1/src/exe/rbdock.cxx#4 $)

>  <Rbt.Library>
libRbt.so (2013.1, Build901 2013/11/27)

>  <Rbt.Parameter_File>
/export/apps/rDock/src/rDock_2013.1_src/data/scripts/dock_solv.prm

>  <Rbt.Receptor>
prm/pocket_docking_6.prm

>  <SCORE>
-15.0449

>  <SCORE.INTER>
-15.0449

>  <SCORE.INTER.CONST>
1

>  <SCORE.INTER.POLAR>
0

>  <SCORE.INTER.ROT>
0

>  <SCORE.INTER.SOLV>
15.9349

>  <SCORE.INTER.VDW>
-18.9416

>  <SCORE.INTER.norm>
-1.25374

>  <SCORE.INTRA>
0

>  <SCORE.INTRA.DIHEDRAL>
0

>  <SCORE.INTRA.DIHEDRAL.0>
0

>  <SCORE.INTRA.POLAR>
0

>  <SCORE.INTRA.POLAR.0>
0

>  <SCORE.INTRA.REPUL>
0

>  <SCORE.INTRA.REPUL.0>
0

>  <SCORE.INTRA.SOLV>
0

>  <SCORE.INTRA.SOLV.lig_0>
-48.1583

>  <SCORE.INTRA.VDW>
0

>  <SCORE.INTRA.VDW.0>
0

>  <SCORE.INTRA.norm>
0

>  <SCORE.RESTR>
0

>  <SCORE.RESTR.CAVITY>
0

>  <SCORE.RESTR.norm>
0

>  <SCORE.SYSTEM>
0

>  <SCORE.SYSTEM.CONST>
0

>  <SCORE.SYSTEM.DIHEDRAL>
0

>  <SCORE.SYSTEM.SOLV>
0

>  <SCORE.SYSTEM.norm>
0

>  <SCORE.heavy>
12

>  <SCORE.norm>
-1.25374

>  <RMSD>
3.025

$$$$
ligand
 OpenBabel02271912143D
libRbt.so/2013.1/901 2013/11/27
 12 13  0  0  0  0  0  0  0  0999 V2000
    4.7418   15.3897    3.8819 C   0  0  0  0  0  0  0  0  0  0  0  0
    6.1269   17.0019    2.9240 C   0  0  0  0  0  0  0  0  0  0  0  0
    4.0696   14.2484    3.7627 N   0  0  0  0  0  0  0  0  0  0  0  0
    6.8056   17.5192    1.8940 N   0  0  0  0  0  0  0  0  0  0  0  0
    5.4228   15.8672    2.8172 N   0  0  0  0  0  0  0  0  0  0  0  0
    4.7559   16.0371    5.0682 N   0  0  0  0  0  0  0  0  0  0  0  0
    6.8694   19.5698    5.4777 N   0  0  0  0  0  0  0  0  0  0  0  0
    6.1546   19.0405    6.5633 C   0  0  0  0  0  0  0  0  0  0  0  0
    5.4270   17.8371    6.4116 N   0  0  0  0  0  0  0  0  0  0  0  0
    5.4448   17.1952    5.2235 C   0  0  0  0  0  0  0  0  0  0  0  0
    6.1614   17.7035    4.1353 C   0  0  0  0  0  0  0  0  0  0  0  0
    6.8812   18.8921    4.2426 C   0  0  0  0  0  0  0  0  0  0  0  0
  1  3  1  0  0  0  0
  1  5  1  0  0  0  0
  1  6  2  0  0  0  0
  2  5  2  0  0  0  0
  2 11  1  0  0  0  0
  2  4  1  0  0  0  0
  6 10  1  0  0  0  0
  7  8  2  0  0  0  0
  7 12  1  0  0  0  0
  8  9  1  0  0  0  0
  9 10  2  0  0  0  0
 10 11  1  0  0  0  0
 11 12  2  0  0  0  0
M  END
>  <CHROM.1>
5.72458825,17.16530676,4.35699213,2.20222155,-0.93995337,-2.07028902

>  <Name>
ligand

>  <RI>
0

>  <Rbt.Current_Directory>
/home/itssahil/PROJECTS/Mol_Feturizer/Test_systems_manuscript/rnas/4lx5

>  <Rbt.Executable>
rbdock ($Id: //depot/dev/client3/rdock/2013.1/src/exe/rbdock.cxx#4 $)

>  <Rbt.Library>
libRbt.so (2013.1, Build901 2013/11/27)

>  <Rbt.Parameter_File>
/export/apps/rDock/src/rDock_2013.1_src/data/scripts/dock_solv.prm

>  <Rbt.Receptor>
prm/pocket_docking_6.prm

>  <SCORE>
-15.0432

>  <SCORE.INTER>
-15.0432

>  <SCORE.INTER.CONST>
1

>  <SCORE.INTER.POLAR>
0

>  <SCORE.INTER.ROT>
0

>  <SCORE.INTER.SOLV>
16.0815

>  <SCORE.INTER.VDW>
-18.9893

>  <SCORE.INTER.norm>
-1.2536

>  <SCORE.INTRA>
0

>  <SCORE.INTRA.DIHEDRAL>
0

>  <SCORE.INTRA.DIHEDRAL.0>
0

>  <SCORE.INTRA.POLAR>
0

>  <SCORE.INTRA.POLAR.0>
0

>  <SCORE.INTRA.REPUL>
0

>  <SCORE.INTRA.REPUL.0>
0

>  <SCORE.INTRA.SOLV>
0

>  <SCORE.INTRA.SOLV.lig_0>
-48.1583

>  <SCORE.INTRA.VDW>
0

>  <SCORE.INTRA.VDW.0>
0

>  <SCORE.INTRA.norm>
0

>  <SCORE.RESTR>
0

>  <SCORE.RESTR.CAVITY>
0

>  <SCORE.RESTR.norm>
0

>  <SCORE.SYSTEM>
0

>  <SCORE.SYSTEM.CONST>
0

>  <SCORE.SYSTEM.DIHEDRAL>
0

>  <SCORE.SYSTEM.SOLV>
0

>  <SCORE.SYSTEM.norm>
0

>  <SCORE.heavy>
12

>  <SCORE.norm>
-1.2536

>  <RMSD>
3.025

$$$$
ligand
 OpenBabel02271912143D
libRbt.so/2013.1/901 2013/11/27
 12 13  0  0  0  0  0  0  0  0999 V2000
    4.7914   15.4449    3.9010 C   0  0  0  0  0  0  0  0  0  0  0  0
    6.1259   17.1086    2.9597 C   0  0  0  0  0  0  0  0  0  0  0  0
    4.1430   14.2915    3.7659 N   0  0  0  0  0  0  0  0  0  0  0  0
    6.7776   17.6638    1.9320 N   0  0  0  0  0  0  0  0  0  0  0  0
    5.4457   15.9610    2.8376 N   0  0  0  0  0  0  0  0  0  0  0  0
    4.8086   16.0660    5.1012 N   0  0  0  0  0  0  0  0  0  0  0  0
    6.8488   19.6356    5.5596 N   0  0  0  0  0  0  0  0  0  0  0  0
    6.1622   19.0665    6.6431 C   0  0  0  0  0  0  0  0  0  0  0  0
    5.4594   17.8506    6.4749 N   0  0  0  0  0  0  0  0  0  0  0  0
    5.4738   17.2356    5.2726 C   0  0  0  0  0  0  0  0  0  0  0  0
    6.1627   17.7839    4.1859 C   0  0  0  0  0  0  0  0  0  0  0  0
    6.8574   18.9858    4.3094 C   0  0  0  0  0  0  0  0  0  0  0  0
  1  3  1  0  0  0  0
  1  5  1  0  0  0  0
  1  6  2  0  0  0  0
  2  5  2  0  0  0  0
  2 11  1  0  0  0  0
  2  4  1  0  0  0  0
  6 10  1  0  0  0  0
  7  8  2  0  0  0  0
  7 12  1  0  0  0  0
  8  9  1  0  0  0  0
  9 10  2  0  0  0  0
 10 11  1  0  0  0  0
 11 12  2  0  0  0  0
M  END
>  <CHROM.1>
5.74134494,17.23123439,4.40167814,2.20637931,-0.96659024,-2.04462602

>  <Name>
ligand

>  <RI>
0

>  <Rbt.Current_Directory>
/home/itssahil/PROJECTS/Mol_Feturizer/Test_systems_manuscript/rnas/4lx5

>  <Rbt.Executable>
rbdock ($Id: //depot/dev/client3/rdock/2013.1/src/exe/rbdock.cxx#4 $)

>  <Rbt.Library>
libRbt.so (2013.1, Build901 2013/11/27)

>  <Rbt.Parameter_File>
/export/apps/rDock/src/rDock_2013.1_src/data/scripts/dock_solv.prm

>  <Rbt.Receptor>
prm/pocket_docking_8.prm

>  <SCORE>
-15.0591

>  <SCORE.INTER>
-15.0591

>  <SCORE.INTER.CONST>
1

>  <SCORE.INTER.POLAR>
0

>  <SCORE.INTER.ROT>
0

>  <SCORE.INTER.SOLV>
16.2484

>  <SCORE.INTER.VDW>
-19.0555

>  <SCORE.INTER.norm>
-1.25492

>  <SCORE.INTRA>
0

>  <SCORE.INTRA.DIHEDRAL>
0

>  <SCORE.INTRA.DIHEDRAL.0>
0

>  <SCORE.INTRA.POLAR>
0

>  <SCORE.INTRA.POLAR.0>
0

>  <SCORE.INTRA.REPUL>
0

>  <SCORE.INTRA.REPUL.0>
0

>  <SCORE.INTRA.SOLV>
0

>  <SCORE.INTRA.SOLV.lig_0>
-48.1583

>  <SCORE.INTRA.VDW>
0

>  <SCORE.INTRA.VDW.0>
0

>  <SCORE.INTRA.norm>
0

>  <SCORE.RESTR>
0

>  <SCORE.RESTR.CAVITY>
0

>  <SCORE.RESTR.norm>
0

>  <SCORE.SYSTEM>
0

>  <SCORE.SYSTEM.CONST>
0

>  <SCORE.SYSTEM.DIHEDRAL>
0

>  <SCORE.SYSTEM.SOLV>
0

>  <SCORE.SYSTEM.norm>
0

>  <SCORE.heavy>
12

>  <SCORE.norm>
-1.25492

>  <RMSD>
3.025

$$$$
ligand
 OpenBabel02271912143D
libRbt.so/2013.1/901 2013/11/27
 12 13  0  0  0  0  0  0  0  0999 V2000
    4.7700   15.4572    3.8952 C   0  0  0  0  0  0  0  0  0  0  0  0
    6.1220   17.1106    2.9608 C   0  0  0  0  0  0  0  0  0  0  0  0
    4.1135   14.3089    3.7568 N   0  0  0  0  0  0  0  0  0  0  0  0
    6.7832   17.6607    1.9365 N   0  0  0  0  0  0  0  0  0  0  0  0
    5.4337   15.9682    2.8352 N   0  0  0  0  0  0  0  0  0  0  0  0
    4.7859   16.0782    5.0955 N   0  0  0  0  0  0  0  0  0  0  0  0
    6.8511   19.6321    5.5644 N   0  0  0  0  0  0  0  0  0  0  0  0
    6.1546   19.0682    6.6444 C   0  0  0  0  0  0  0  0  0  0  0  0
    5.4433   17.8577    6.4726 N   0  0  0  0  0  0  0  0  0  0  0  0
    5.4591   17.2427    5.2703 C   0  0  0  0  0  0  0  0  0  0  0  0
    6.1578   17.7856    4.1872 C   0  0  0  0  0  0  0  0  0  0  0  0
    6.8610   18.9821    4.3143 C   0  0  0  0  0  0  0  0  0  0  0  0
  1  3  1  0  0  0  0
  1  5  1  0  0  0  0
  1  6  2  0  0  0  0
  2  5  2  0  0  0  0
  2 11  1  0  0  0  0
  2  4  1  0  0  0  0
  6 10  1  0  0  0  0
  7  8  2  0  0  0  0
  7 12  1  0  0  0  0
  8  9  1  0  0  0  0
  9 10  2  0  0  0  0
 10 11  1  0  0  0  0
 11 12  2  0  0  0  0
M  END
>  <CHROM.1>
5.73108875,17.23622122,4.40080573,2.20455711,-0.95741944,-2.04611862

>  <Name>
ligand

>  <RI>
0

>  <Rbt.Current_Directory>
/home/itssahil/PROJECTS/Mol_Feturizer/Test_systems_manuscript/rnas/4lx5

>  <Rbt.Executable>
rbdock ($Id: //depot/dev/client3/rdock/2013.1/src/exe/rbdock.cxx#4 $)

>  <Rbt.Library>
libRbt.so (2013.1, Build901 2013/11/27)

>  <Rbt.Parameter_File>
/export/apps/rDock/src/rDock_2013.1_src/data/scripts/dock_solv.prm

>  <Rbt.Receptor>
prm/pocket_docking_4.prm

>  <SCORE>
-15.0687

>  <SCORE.INTER>
-15.0687

>  <SCORE.INTER.CONST>
1

>  <SCORE.INTER.POLAR>
0

>  <SCORE.INTER.ROT>
0

>  <SCORE.INTER.SOLV>
16.0971

>  <SCORE.INTER.VDW>
-19.0115

>  <SCORE.INTER.norm>
-1.25572

>  <SCORE.INTRA>
0

>  <SCORE.INTRA.DIHEDRAL>
0

>  <SCORE.INTRA.DIHEDRAL.0>
0

>  <SCORE.INTRA.POLAR>
0

>  <SCORE.INTRA.POLAR.0>
0

>  <SCORE.INTRA.REPUL>
0

>  <SCORE.INTRA.REPUL.0>
0

>  <SCORE.INTRA.SOLV>
0

>  <SCORE.INTRA.SOLV.lig_0>
-48.1583

>  <SCORE.INTRA.VDW>
0

>  <SCORE.INTRA.VDW.0>
0

>  <SCORE.INTRA.norm>
0

>  <SCORE.RESTR>
0

>  <SCORE.RESTR.CAVITY>
0

>  <SCORE.RESTR.norm>
0

>  <SCORE.SYSTEM>
0

>  <SCORE.SYSTEM.CONST>
0

>  <SCORE.SYSTEM.DIHEDRAL>
0

>  <SCORE.SYSTEM.SOLV>
0

>  <SCORE.SYSTEM.norm>
0

>  <SCORE.heavy>
12

>  <SCORE.norm>
-1.25572

>  <RMSD>
3.026

$$$$
ligand
 OpenBabel02271912143D
libRbt.so/2013.1/901 2013/11/27
 12 13  0  0  0  0  0  0  0  0999 V2000
    4.7467   15.3864    3.8896 C   0  0  0  0  0  0  0  0  0  0  0  0
    6.1262   16.9994    2.9251 C   0  0  0  0  0  0  0  0  0  0  0  0
    4.0737   14.2452    3.7733 N   0  0  0  0  0  0  0  0  0  0  0  0
    6.7988   17.5176    1.8917 N   0  0  0  0  0  0  0  0  0  0  0  0
    5.4214   15.8648    2.8214 N   0  0  0  0  0  0  0  0  0  0  0  0
    4.7679   16.0326    5.0765 N   0  0  0  0  0  0  0  0  0  0  0  0
    6.8841   19.5647    5.4770 N   0  0  0  0  0  0  0  0  0  0  0  0
    6.1758   19.0344    6.5663 C   0  0  0  0  0  0  0  0  0  0  0  0
    5.4472   17.8312    6.4177 N   0  0  0  0  0  0  0  0  0  0  0  0
    5.4578   17.1904    5.2289 C   0  0  0  0  0  0  0  0  0  0  0  0
    6.1680   17.6997    4.1370 C   0  0  0  0  0  0  0  0  0  0  0  0
    6.8885   18.8882    4.2411 C   0  0  0  0  0  0  0  0  0  0  0  0
  1  3  1  0  0  0  0
  1  5  1  0  0  0  0
  1  6  2  0  0  0  0
  2  5  2  0  0  0  0
  2 11  1  0  0  0  0
  2  4  1  0  0  0  0
  6 10  1  0  0  0  0
  7  8  2  0  0  0  0
  7 12  1  0  0  0  0
  8  9  1  0  0  0  0
  9 10  2  0  0  0  0
 10 11  1  0  0  0  0
 11 12  2  0  0  0  0
M  END
>  <CHROM.1>
5.73246381,17.16138578,4.36067275,2.21119605,-0.94270464,-2.06203065

>  <Name>
ligand

>  <RI>
0

>  <Rbt.Current_Directory>
/home/itssahil/PROJECTS/Mol_Feturizer/Test_systems_manuscript/rnas/4lx5

>  <Rbt.Executable>
rbdock ($Id: //depot/dev/client3/rdock/2013.1/src/exe/rbdock.cxx#4 $)

>  <Rbt.Library>
libRbt.so (2013.1, Build901 2013/11/27)

>  <Rbt.Parameter_File>
/export/apps/rDock/src/rDock_2013.1_src/data/scripts/dock_solv.prm

>  <Rbt.Receptor>
prm/pocket_docking_6.prm

>  <SCORE>
-15.0446

>  <SCORE.INTER>
-15.0446

>  <SCORE.INTER.CONST>
1

>  <SCORE.INTER.POLAR>
0

>  <SCORE.INTER.ROT>
0

>  <SCORE.INTER.SOLV>
16.0982

>  <SCORE.INTER.VDW>
-18.9958

>  <SCORE.INTER.norm>
-1.25372

>  <SCORE.INTRA>
0

>  <SCORE.INTRA.DIHEDRAL>
0

>  <SCORE.INTRA.DIHEDRAL.0>
0

>  <SCORE.INTRA.POLAR>
0

>  <SCORE.INTRA.POLAR.0>
0

>  <SCORE.INTRA.REPUL>
0

>  <SCORE.INTRA.REPUL.0>
0

>  <SCORE.INTRA.SOLV>
0

>  <SCORE.INTRA.SOLV.lig_0>
-48.1583

>  <SCORE.INTRA.VDW>
0

>  <SCORE.INTRA.VDW.0>
0

>  <SCORE.INTRA.norm>
0

>  <SCORE.RESTR>
0

>  <SCORE.RESTR.CAVITY>
0

>  <SCORE.RESTR.norm>
0

>  <SCORE.SYSTEM>
0

>  <SCORE.SYSTEM.CONST>
0

>  <SCORE.SYSTEM.DIHEDRAL>
0

>  <SCORE.SYSTEM.SOLV>
0

>  <SCORE.SYSTEM.norm>
0

>  <SCORE.heavy>
12

>  <SCORE.norm>
-1.25372

>  <RMSD>
3.026

$$$$
ligand
 OpenBabel02271912143D
libRbt.so/2013.1/901 2013/11/27
 12 13  0  0  0  0  0  0  0  0999 V2000
    4.7659   15.4573    3.8929 C   0  0  0  0  0  0  0  0  0  0  0  0
    6.1222   17.1097    2.9630 C   0  0  0  0  0  0  0  0  0  0  0  0
    4.1081   14.3100    3.7520 N   0  0  0  0  0  0  0  0  0  0  0  0
    6.7865   17.6597    1.9406 N   0  0  0  0  0  0  0  0  0  0  0  0
    5.4327   15.9683    2.8348 N   0  0  0  0  0  0  0  0  0  0  0  0
    4.7797   16.0773    5.0937 N   0  0  0  0  0  0  0  0  0  0  0  0
    6.8486   19.6281    5.5702 N   0  0  0  0  0  0  0  0  0  0  0  0
    6.1489   19.0642    6.6482 C   0  0  0  0  0  0  0  0  0  0  0  0
    5.4364   17.8549    6.4737 N   0  0  0  0  0  0  0  0  0  0  0  0
    5.4542   17.2408    5.2710 C   0  0  0  0  0  0  0  0  0  0  0  0
    6.1561   17.7837    4.1900 C   0  0  0  0  0  0  0  0  0  0  0  0
    6.8606   18.9791    4.3197 C   0  0  0  0  0  0  0  0  0  0  0  0
  1  3  1  0  0  0  0
  1  5  1  0  0  0  0
  1  6  2  0  0  0  0
  2  5  2  0  0  0  0
  2 11  1  0  0  0  0
  2  4  1  0  0  0  0
  6 10  1  0  0  0  0
  7  8  2  0  0  0  0
  7 12  1  0  0  0  0
  8  9  1  0  0  0  0
  9 10  2  0  0  0  0
 10 11  1  0  0  0  0
 11 12  2  0  0  0  0
M  END
>  <CHROM.1>
5.72811862,17.23464101,4.40213549,2.20205839,-0.95517533,-2.04735552

>  <Name>
ligand

>  <RI>
0

>  <Rbt.Current_Directory>
/home/itssahil/PROJECTS/Mol_Feturizer/Test_systems_manuscript/rnas/4lx5

>  <Rbt.Executable>
rbdock ($Id: //depot/dev/client3/rdock/2013.1/src/exe/rbdock.cxx#4 $)

>  <Rbt.Library>
libRbt.so (2013.1, Build901 2013/11/27)

>  <Rbt.Parameter_File>
/export/apps/rDock/src/rDock_2013.1_src/data/scripts/dock_solv.prm

>  <Rbt.Receptor>
prm/pocket_docking_8.prm

>  <SCORE>
-15.0677

>  <SCORE.INTER>
-15.0677

>  <SCORE.INTER.CONST>
1

>  <SCORE.INTER.POLAR>
0

>  <SCORE.INTER.ROT>
0

>  <SCORE.INTER.SOLV>
16.0658

>  <SCORE.INTER.VDW>
-19.0004

>  <SCORE.INTER.norm>
-1.25564

>  <SCORE.INTRA>
0

>  <SCORE.INTRA.DIHEDRAL>
0

>  <SCORE.INTRA.DIHEDRAL.0>
0

>  <SCORE.INTRA.POLAR>
0

>  <SCORE.INTRA.POLAR.0>
0

>  <SCORE.INTRA.REPUL>
0

>  <SCORE.INTRA.REPUL.0>
0

>  <SCORE.INTRA.SOLV>
0

>  <SCORE.INTRA.SOLV.lig_0>
-48.1583

>  <SCORE.INTRA.VDW>
0

>  <SCORE.INTRA.VDW.0>
0

>  <SCORE.INTRA.norm>
0

>  <SCORE.RESTR>
0

>  <SCORE.RESTR.CAVITY>
0

>  <SCORE.RESTR.norm>
0

>  <SCORE.SYSTEM>
0

>  <SCORE.SYSTEM.CONST>
0

>  <SCORE.SYSTEM.DIHEDRAL>
0

>  <SCORE.SYSTEM.SOLV>
0

>  <SCORE.SYSTEM.norm>
0

>  <SCORE.heavy>
12

>  <SCORE.norm>
-1.25564

>  <RMSD>
3.026

$$$$
ligand
 OpenBabel02271912143D
libRbt.so/2013.1/901 2013/11/27
 12 13  0  0  0  0  0  0  0  0999 V2000
    4.7867   15.4440    3.9000 C   0  0  0  0  0  0  0  0  0  0  0  0
    6.1219   17.1081    2.9602 C   0  0  0  0  0  0  0  0  0  0  0  0
    4.1397   14.2900    3.7646 N   0  0  0  0  0  0  0  0  0  0  0  0
    6.7754   17.6628    1.9335 N   0  0  0  0  0  0  0  0  0  0  0  0
    5.4430   15.9597    2.8376 N   0  0  0  0  0  0  0  0  0  0  0  0
    4.8007   16.0663    5.0997 N   0  0  0  0  0  0  0  0  0  0  0  0
    6.8367   19.6382    5.5593 N   0  0  0  0  0  0  0  0  0  0  0  0
    6.1481   19.0694    6.6419 C   0  0  0  0  0  0  0  0  0  0  0  0
    5.4467   17.8527    6.4732 N   0  0  0  0  0  0  0  0  0  0  0  0
    5.4644   17.2367    5.2715 C   0  0  0  0  0  0  0  0  0  0  0  0
    6.1554   17.7845    4.1858 C   0  0  0  0  0  0  0  0  0  0  0  0
    6.8486   18.9871    4.3098 C   0  0  0  0  0  0  0  0  0  0  0  0
  1  3  1  0  0  0  0
  1  5  1  0  0  0  0
  1  6  2  0  0  0  0
  2  5  2  0  0  0  0
  2 11  1  0  0  0  0
  2  4  1  0  0  0  0
  6 10  1  0  0  0  0
  7  8  2  0  0  0  0
  7 12  1  0  0  0  0
  8  9  1  0  0  0  0
  9 10  2  0  0  0  0
 10 11  1  0  0  0  0
 11 12  2  0  0  0  0
M  END
>  <CHROM.1>
5.73395702,17.23168690,4.40118239,2.20212968,-0.96633880,-2.04906320

>  <Name>
ligand

>  <RI>
0

>  <Rbt.Current_Directory>
/home/itssahil/PROJECTS/Mol_Feturizer/Test_systems_manuscript/rnas/4lx5

>  <Rbt.Executable>
rbdock ($Id: //depot/dev/client3/rdock/2013.1/src/exe/rbdock.cxx#4 $)

>  <Rbt.Library>
libRbt.so (2013.1, Build901 2013/11/27)

>  <Rbt.Parameter_File>
/export/apps/rDock/src/rDock_2013.1_src/data/scripts/dock_solv.prm

>  <Rbt.Receptor>
prm/pocket_docking_8.prm

>  <SCORE>
-15.0633

>  <SCORE.INTER>
-15.0633

>  <SCORE.INTER.CONST>
1

>  <SCORE.INTER.POLAR>
0

>  <SCORE.INTER.ROT>
0

>  <SCORE.INTER.SOLV>
16.231

>  <SCORE.INTER.VDW>
-19.0525

>  <SCORE.INTER.norm>
-1.25527

>  <SCORE.INTRA>
0

>  <SCORE.INTRA.DIHEDRAL>
0

>  <SCORE.INTRA.DIHEDRAL.0>
0

>  <SCORE.INTRA.POLAR>
0

>  <SCORE.INTRA.POLAR.0>
0

>  <SCORE.INTRA.REPUL>
0

>  <SCORE.INTRA.REPUL.0>
0

>  <SCORE.INTRA.SOLV>
0

>  <SCORE.INTRA.SOLV.lig_0>
-48.1583

>  <SCORE.INTRA.VDW>
0

>  <SCORE.INTRA.VDW.0>
0

>  <SCORE.INTRA.norm>
0

>  <SCORE.RESTR>
0

>  <SCORE.RESTR.CAVITY>
0

>  <SCORE.RESTR.norm>
0

>  <SCORE.SYSTEM>
0

>  <SCORE.SYSTEM.CONST>
0

>  <SCORE.SYSTEM.DIHEDRAL>
0

>  <SCORE.SYSTEM.SOLV>
0

>  <SCORE.SYSTEM.norm>
0

>  <SCORE.heavy>
12

>  <SCORE.norm>
-1.25527

>  <RMSD>
3.026

$$$$
ligand
 OpenBabel02271912143D
libRbt.so/2013.1/901 2013/11/27
 12 13  0  0  0  0  0  0  0  0999 V2000
    4.7681   15.4633    3.8945 C   0  0  0  0  0  0  0  0  0  0  0  0
    6.1419   17.1041    2.9696 C   0  0  0  0  0  0  0  0  0  0  0  0
    4.1016   14.3213    3.7514 N   0  0  0  0  0  0  0  0  0  0  0  0
    6.8150   17.6481    1.9498 N   0  0  0  0  0  0  0  0  0  0  0  0
    5.4436   15.9683    2.8391 N   0  0  0  0  0  0  0  0  0  0  0  0
    4.7819   16.0838    5.0951 N   0  0  0  0  0  0  0  0  0  0  0  0
    6.8777   19.6178    5.5787 N   0  0  0  0  0  0  0  0  0  0  0  0
    6.1687   19.0603    6.6540 C   0  0  0  0  0  0  0  0  0  0  0  0
    5.4471   17.8567    6.4770 N   0  0  0  0  0  0  0  0  0  0  0  0
    5.4651   17.2418    5.2747 C   0  0  0  0  0  0  0  0  0  0  0  0
    6.1760   17.7784    4.1964 C   0  0  0  0  0  0  0  0  0  0  0  0
    6.8897   18.9681    4.3285 C   0  0  0  0  0  0  0  0  0  0  0  0
  1  3  1  0  0  0  0
  1  5  1  0  0  0  0
  1  6  2  0  0  0  0
  2  5  2  0  0  0  0
  2 11  1  0  0  0  0
  2  4  1  0  0  0  0
  6 10  1  0  0  0  0
  7  8  2  0  0  0  0
  7 12  1  0  0  0  0
  8  9  1  0  0  0  0
  9 10  2  0  0  0  0
 10 11  1  0  0  0  0
 11 12  2  0  0  0  0
M  END
>  <CHROM.1>
5.74268343,17.23299005,4.40702687,2.20196064,-0.94594447,-2.04795274

>  <Name>
ligand

>  <RI>
0

>  <Rbt.Current_Directory>
/home/itssahil/PROJECTS/Mol_Feturizer/Test_systems_manuscript/rnas/4lx5

>  <Rbt.Executable>
rbdock ($Id: //depot/dev/client3/rdock/2013.1/src/exe/rbdock.cxx#4 $)

>  <Rbt.Library>
libRbt.so (2013.1, Build901 2013/11/27)

>  <Rbt.Parameter_File>
/export/apps/rDock/src/rDock_2013.1_src/data/scripts/dock_solv.prm

>  <Rbt.Receptor>
prm/pocket_docking_3.prm

>  <SCORE>
-15.0472

>  <SCORE.INTER>
-15.0472

>  <SCORE.INTER.CONST>
1

>  <SCORE.INTER.POLAR>
0

>  <SCORE.INTER.ROT>
0

>  <SCORE.INTER.SOLV>
16.0451

>  <SCORE.INTER.VDW>
-18.9798

>  <SCORE.INTER.norm>
-1.25393

>  <SCORE.INTRA>
0

>  <SCORE.INTRA.DIHEDRAL>
0

>  <SCORE.INTRA.DIHEDRAL.0>
0

>  <SCORE.INTRA.POLAR>
0

>  <SCORE.INTRA.POLAR.0>
0

>  <SCORE.INTRA.REPUL>
0

>  <SCORE.INTRA.REPUL.0>
0

>  <SCORE.INTRA.SOLV>
0

>  <SCORE.INTRA.SOLV.lig_0>
-48.1583

>  <SCORE.INTRA.VDW>
0

>  <SCORE.INTRA.VDW.0>
0

>  <SCORE.INTRA.norm>
0

>  <SCORE.RESTR>
0

>  <SCORE.RESTR.CAVITY>
0

>  <SCORE.RESTR.norm>
0

>  <SCORE.SYSTEM>
0

>  <SCORE.SYSTEM.CONST>
0

>  <SCORE.SYSTEM.DIHEDRAL>
0

>  <SCORE.SYSTEM.SOLV>
0

>  <SCORE.SYSTEM.norm>
0

>  <SCORE.heavy>
12

>  <SCORE.norm>
-1.25393

>  <RMSD>
3.027

$$$$
ligand
 OpenBabel02271912143D
libRbt.so/2013.1/901 2013/11/27
 12 13  0  0  0  0  0  0  0  0999 V2000
    4.7611   15.4588    3.8926 C   0  0  0  0  0  0  0  0  0  0  0  0
    6.1260   17.1068    2.9672 C   0  0  0  0  0  0  0  0  0  0  0  0
    4.1000   14.3137    3.7496 N   0  0  0  0  0  0  0  0  0  0  0  0
    6.7954   17.6546    1.9470 N   0  0  0  0  0  0  0  0  0  0  0  0
    5.4330   15.9677    2.8368 N   0  0  0  0  0  0  0  0  0  0  0  0
    4.7732   16.0788    5.0935 N   0  0  0  0  0  0  0  0  0  0  0  0
    6.8523   19.6226    5.5769 N   0  0  0  0  0  0  0  0  0  0  0  0
    6.1472   19.0611    6.6526 C   0  0  0  0  0  0  0  0  0  0  0  0
    5.4312   17.8541    6.4758 N   0  0  0  0  0  0  0  0  0  0  0  0
    5.4509   17.2400    5.2731 C   0  0  0  0  0  0  0  0  0  0  0  0
    6.1581   17.7805    4.1943 C   0  0  0  0  0  0  0  0  0  0  0  0
    6.8661   18.9737    4.3264 C   0  0  0  0  0  0  0  0  0  0  0  0
  1  3  1  0  0  0  0
  1  5  1  0  0  0  0
  1  6  2  0  0  0  0
  2  5  2  0  0  0  0
  2 11  1  0  0  0  0
  2  4  1  0  0  0  0
  6 10  1  0  0  0  0
  7  8  2  0  0  0  0
  7 12  1  0  0  0  0
  8  9  1  0  0  0  0
  9 10  2  0  0  0  0
 10 11  1  0  0  0  0
 11 12  2  0  0  0  0
M  END
>  <CHROM.1>
5.72761817,17.23295994,4.40508371,2.19973599,-0.95072167,-2.04920932

>  <Name>
ligand

>  <RI>
0

>  <Rbt.Current_Directory>
/home/itssahil/PROJECTS/Mol_Feturizer/Test_systems_manuscript/rnas/4lx5

>  <Rbt.Executable>
rbdock ($Id: //depot/dev/client3/rdock/2013.1/src/exe/rbdock.cxx#4 $)

>  <Rbt.Library>
libRbt.so (2013.1, Build901 2013/11/27)

>  <Rbt.Parameter_File>
/export/apps/rDock/src/rDock_2013.1_src/data/scripts/dock_solv.prm

>  <Rbt.Receptor>
prm/pocket_docking_4.prm

>  <SCORE>
-15.0724

>  <SCORE.INTER>
-15.0724

>  <SCORE.INTER.CONST>
1

>  <SCORE.INTER.POLAR>
0

>  <SCORE.INTER.ROT>
0

>  <SCORE.INTER.SOLV>
16.0256

>  <SCORE.INTER.VDW>
-18.9902

>  <SCORE.INTER.norm>
-1.25604

>  <SCORE.INTRA>
0

>  <SCORE.INTRA.DIHEDRAL>
0

>  <SCORE.INTRA.DIHEDRAL.0>
0

>  <SCORE.INTRA.POLAR>
0

>  <SCORE.INTRA.POLAR.0>
0

>  <SCORE.INTRA.REPUL>
0

>  <SCORE.INTRA.REPUL.0>
0

>  <SCORE.INTRA.SOLV>
0

>  <SCORE.INTRA.SOLV.lig_0>
-48.1583

>  <SCORE.INTRA.VDW>
0

>  <SCORE.INTRA.VDW.0>
0

>  <SCORE.INTRA.norm>
0

>  <SCORE.RESTR>
0

>  <SCORE.RESTR.CAVITY>
0

>  <SCORE.RESTR.norm>
0

>  <SCORE.SYSTEM>
0

>  <SCORE.SYSTEM.CONST>
0

>  <SCORE.SYSTEM.DIHEDRAL>
0

>  <SCORE.SYSTEM.SOLV>
0

>  <SCORE.SYSTEM.norm>
0

>  <SCORE.heavy>
12

>  <SCORE.norm>
-1.25604

>  <RMSD>
3.027

$$$$
ligand
 OpenBabel02271912143D
libRbt.so/2013.1/901 2013/11/27
 12 13  0  0  0  0  0  0  0  0999 V2000
    4.7724   15.4533    3.8977 C   0  0  0  0  0  0  0  0  0  0  0  0
    6.1185   17.1107    2.9618 C   0  0  0  0  0  0  0  0  0  0  0  0
    4.1179   14.3038    3.7596 N   0  0  0  0  0  0  0  0  0  0  0  0
    6.7760   17.6633    1.9364 N   0  0  0  0  0  0  0  0  0  0  0  0
    5.4323   15.9670    2.8366 N   0  0  0  0  0  0  0  0  0  0  0  0
    4.7899   16.0731    5.0986 N   0  0  0  0  0  0  0  0  0  0  0  0
    6.8488   19.6308    5.5663 N   0  0  0  0  0  0  0  0  0  0  0  0
    6.1562   19.0643    6.6474 C   0  0  0  0  0  0  0  0  0  0  0  0
    5.4470   17.8525    6.4760 N   0  0  0  0  0  0  0  0  0  0  0  0
    5.4612   17.2388    5.2731 C   0  0  0  0  0  0  0  0  0  0  0  0
    6.1560   17.7844    4.1888 C   0  0  0  0  0  0  0  0  0  0  0  0
    6.8570   18.9823    4.3155 C   0  0  0  0  0  0  0  0  0  0  0  0
  1  3  1  0  0  0  0
  1  5  1  0  0  0  0
  1  6  2  0  0  0  0
  2  5  2  0  0  0  0
  2 11  1  0  0  0  0
  2  4  1  0  0  0  0
  6 10  1  0  0  0  0
  7  8  2  0  0  0  0
  7 12  1  0  0  0  0
  8  9  1  0  0  0  0
  9 10  2  0  0  0  0
 10 11  1  0  0  0  0
 11 12  2  0  0  0  0
M  END
>  <CHROM.1>
5.73094489,17.23386228,4.40285182,2.20676010,-0.96045125,-2.04320840

>  <Name>
ligand

>  <RI>
0

>  <Rbt.Current_Directory>
/home/itssahil/PROJECTS/Mol_Feturizer/Test_systems_manuscript/rnas/4lx5

>  <Rbt.Executable>
rbdock ($Id: //depot/dev/client3/rdock/2013.1/src/exe/rbdock.cxx#4 $)

>  <Rbt.Library>
libRbt.so (2013.1, Build901 2013/11/27)

>  <Rbt.Parameter_File>
/export/apps/rDock/src/rDock_2013.1_src/data/scripts/dock_solv.prm

>  <Rbt.Receptor>
prm/pocket_docking_4.prm

>  <SCORE>
-15.0689

>  <SCORE.INTER>
-15.0689

>  <SCORE.INTER.CONST>
1

>  <SCORE.INTER.POLAR>
0

>  <SCORE.INTER.ROT>
0

>  <SCORE.INTER.SOLV>
16.1139

>  <SCORE.INTER.VDW>
-19.0172

>  <SCORE.INTER.norm>
-1.25574

>  <SCORE.INTRA>
0

>  <SCORE.INTRA.DIHEDRAL>
0

>  <SCORE.INTRA.DIHEDRAL.0>
0

>  <SCORE.INTRA.POLAR>
0

>  <SCORE.INTRA.POLAR.0>
0

>  <SCORE.INTRA.REPUL>
0

>  <SCORE.INTRA.REPUL.0>
0

>  <SCORE.INTRA.SOLV>
0

>  <SCORE.INTRA.SOLV.lig_0>
-48.1583

>  <SCORE.INTRA.VDW>
0

>  <SCORE.INTRA.VDW.0>
0

>  <SCORE.INTRA.norm>
0

>  <SCORE.RESTR>
0

>  <SCORE.RESTR.CAVITY>
0

>  <SCORE.RESTR.norm>
0

>  <SCORE.SYSTEM>
0

>  <SCORE.SYSTEM.CONST>
0

>  <SCORE.SYSTEM.DIHEDRAL>
0

>  <SCORE.SYSTEM.SOLV>
0

>  <SCORE.SYSTEM.norm>
0

>  <SCORE.heavy>
12

>  <SCORE.norm>
-1.25574

>  <RMSD>
3.027

$$$$
ligand
 OpenBabel02271912143D
libRbt.so/2013.1/901 2013/11/27
 12 13  0  0  0  0  0  0  0  0999 V2000
    4.7854   15.4489    3.9061 C   0  0  0  0  0  0  0  0  0  0  0  0
    6.1201   17.1095    2.9596 C   0  0  0  0  0  0  0  0  0  0  0  0
    4.1366   14.2954    3.7746 N   0  0  0  0  0  0  0  0  0  0  0  0
    6.7717   17.6614    1.9301 N   0  0  0  0  0  0  0  0  0  0  0  0
    5.4396   15.9617    2.8411 N   0  0  0  0  0  0  0  0  0  0  0  0
    4.8030   16.0736    5.1045 N   0  0  0  0  0  0  0  0  0  0  0  0
    6.8444   19.6440    5.5518 N   0  0  0  0  0  0  0  0  0  0  0  0
    6.1579   19.0782    6.6372 C   0  0  0  0  0  0  0  0  0  0  0  0
    5.4546   17.8621    6.4728 N   0  0  0  0  0  0  0  0  0  0  0  0
    5.4686   17.2436    5.2723 C   0  0  0  0  0  0  0  0  0  0  0  0
    6.1575   17.7884    4.1838 C   0  0  0  0  0  0  0  0  0  0  0  0
    6.8525   18.9904    4.3036 C   0  0  0  0  0  0  0  0  0  0  0  0
  1  3  1  0  0  0  0
  1  5  1  0  0  0  0
  1  6  2  0  0  0  0
  2  5  2  0  0  0  0
  2 11  1  0  0  0  0
  2  4  1  0  0  0  0
  6 10  1  0  0  0  0
  7  8  2  0  0  0  0
  7 12  1  0  0  0  0
  8  9  1  0  0  0  0
  9 10  2  0  0  0  0
 10 11  1  0  0  0  0
 11 12  2  0  0  0  0
M  END
>  <CHROM.1>
5.73594216,17.23650607,4.40131540,2.20698769,-0.96643427,-2.04708820

>  <Name>
ligand

>  <RI>
0

>  <Rbt.Current_Directory>
/home/itssahil/PROJECTS/Mol_Feturizer/Test_systems_manuscript/rnas/4lx5

>  <Rbt.Executable>
rbdock ($Id: //depot/dev/client3/rdock/2013.1/src/exe/rbdock.cxx#4 $)

>  <Rbt.Library>
libRbt.so (2013.1, Build901 2013/11/27)

>  <Rbt.Parameter_File>
/export/apps/rDock/src/rDock_2013.1_src/data/scripts/dock_solv.prm

>  <Rbt.Receptor>
prm/pocket_docking_6.prm

>  <SCORE>
-15.0613

>  <SCORE.INTER>
-15.0613

>  <SCORE.INTER.CONST>
1

>  <SCORE.INTER.POLAR>
0

>  <SCORE.INTER.ROT>
0

>  <SCORE.INTER.SOLV>
16.2259

>  <SCORE.INTER.VDW>
-19.0495

>  <SCORE.INTER.norm>
-1.25511

>  <SCORE.INTRA>
0

>  <SCORE.INTRA.DIHEDRAL>
0

>  <SCORE.INTRA.DIHEDRAL.0>
0

>  <SCORE.INTRA.POLAR>
0

>  <SCORE.INTRA.POLAR.0>
0

>  <SCORE.INTRA.REPUL>
0

>  <SCORE.INTRA.REPUL.0>
0

>  <SCORE.INTRA.SOLV>
0

>  <SCORE.INTRA.SOLV.lig_0>
-48.1583

>  <SCORE.INTRA.VDW>
0

>  <SCORE.INTRA.VDW.0>
0

>  <SCORE.INTRA.norm>
0

>  <SCORE.RESTR>
0

>  <SCORE.RESTR.CAVITY>
0

>  <SCORE.RESTR.norm>
0

>  <SCORE.SYSTEM>
0

>  <SCORE.SYSTEM.CONST>
0

>  <SCORE.SYSTEM.DIHEDRAL>
0

>  <SCORE.SYSTEM.SOLV>
0

>  <SCORE.SYSTEM.norm>
0

>  <SCORE.heavy>
12

>  <SCORE.norm>
-1.25511

>  <RMSD>
3.027

$$$$
ligand
 OpenBabel02271912143D
libRbt.so/2013.1/901 2013/11/27
 12 13  0  0  0  0  0  0  0  0999 V2000
    4.7877   15.4459    3.9055 C   0  0  0  0  0  0  0  0  0  0  0  0
    6.1258   17.1056    2.9621 C   0  0  0  0  0  0  0  0  0  0  0  0
    4.1399   14.2919    3.7731 N   0  0  0  0  0  0  0  0  0  0  0  0
    6.7815   17.6560    1.9345 N   0  0  0  0  0  0  0  0  0  0  0  0
    5.4462   15.9573    2.8425 N   0  0  0  0  0  0  0  0  0  0  0  0
    4.8000   16.0726    5.1030 N   0  0  0  0  0  0  0  0  0  0  0  0
    6.8380   19.6445    5.5532 N   0  0  0  0  0  0  0  0  0  0  0  0
    6.1471   19.0802    6.6366 C   0  0  0  0  0  0  0  0  0  0  0  0
    5.4450   17.8635    6.4711 N   0  0  0  0  0  0  0  0  0  0  0  0
    5.4644   17.2431    5.2717 C   0  0  0  0  0  0  0  0  0  0  0  0
    6.1576   17.7864    4.1853 C   0  0  0  0  0  0  0  0  0  0  0  0
    6.8516   18.9889    4.3061 C   0  0  0  0  0  0  0  0  0  0  0  0
  1  3  1  0  0  0  0
  1  5  1  0  0  0  0
  1  6  2  0  0  0  0
  2  5  2  0  0  0  0
  2 11  1  0  0  0  0
  2  4  1  0  0  0  0
  6 10  1  0  0  0  0
  7  8  2  0  0  0  0
  7 12  1  0  0  0  0
  8  9  1  0  0  0  0
  9 10  2  0  0  0  0
 10 11  1  0  0  0  0
 11 12  2  0  0  0  0
M  END
>  <CHROM.1>
5.73541463,17.23470654,4.40187959,2.19999957,-0.96482065,-2.05445113

>  <Name>
ligand

>  <RI>
0

>  <Rbt.Current_Directory>
/home/itssahil/PROJECTS/Mol_Feturizer/Test_systems_manuscript/rnas/4lx5

>  <Rbt.Executable>
rbdock ($Id: //depot/dev/client3/rdock/2013.1/src/exe/rbdock.cxx#4 $)

>  <Rbt.Library>
libRbt.so (2013.1, Build901 2013/11/27)

>  <Rbt.Parameter_File>
/export/apps/rDock/src/rDock_2013.1_src/data/scripts/dock_solv.prm

>  <Rbt.Receptor>
prm/pocket_docking_8.prm

>  <SCORE>
-15.0557

>  <SCORE.INTER>
-15.0557

>  <SCORE.INTER.CONST>
1

>  <SCORE.INTER.POLAR>
0

>  <SCORE.INTER.ROT>
0

>  <SCORE.INTER.SOLV>
16.2479

>  <SCORE.INTER.VDW>
-19.0531

>  <SCORE.INTER.norm>
-1.25464

>  <SCORE.INTRA>
0

>  <SCORE.INTRA.DIHEDRAL>
0

>  <SCORE.INTRA.DIHEDRAL.0>
0

>  <SCORE.INTRA.POLAR>
0

>  <SCORE.INTRA.POLAR.0>
0

>  <SCORE.INTRA.REPUL>
0

>  <SCORE.INTRA.REPUL.0>
0

>  <SCORE.INTRA.SOLV>
0

>  <SCORE.INTRA.SOLV.lig_0>
-48.1583

>  <SCORE.INTRA.VDW>
0

>  <SCORE.INTRA.VDW.0>
0

>  <SCORE.INTRA.norm>
0

>  <SCORE.RESTR>
0

>  <SCORE.RESTR.CAVITY>
0

>  <SCORE.RESTR.norm>
0

>  <SCORE.SYSTEM>
0

>  <SCORE.SYSTEM.CONST>
0

>  <SCORE.SYSTEM.DIHEDRAL>
0

>  <SCORE.SYSTEM.SOLV>
0

>  <SCORE.SYSTEM.norm>
0

>  <SCORE.heavy>
12

>  <SCORE.norm>
-1.25464

>  <RMSD>
3.027

$$$$
ligand
 OpenBabel02271912143D
libRbt.so/2013.1/901 2013/11/27
 12 13  0  0  0  0  0  0  0  0999 V2000
    4.7459   15.3993    3.8973 C   0  0  0  0  0  0  0  0  0  0  0  0
    6.1014   17.0306    2.9296 C   0  0  0  0  0  0  0  0  0  0  0  0
    4.0839   14.2516    3.7811 N   0  0  0  0  0  0  0  0  0  0  0  0
    6.7610   17.5601    1.8935 N   0  0  0  0  0  0  0  0  0  0  0  0
    5.4077   15.8892    2.8262 N   0  0  0  0  0  0  0  0  0  0  0  0
    4.7690   16.0407    5.0867 N   0  0  0  0  0  0  0  0  0  0  0  0
    6.8513   19.5930    5.4867 N   0  0  0  0  0  0  0  0  0  0  0  0
    6.1565   19.0508    6.5789 C   0  0  0  0  0  0  0  0  0  0  0  0
    5.4394   17.8407    6.4305 N   0  0  0  0  0  0  0  0  0  0  0  0
    5.4480   17.2051    5.2390 C   0  0  0  0  0  0  0  0  0  0  0  0
    6.1448   17.7263    4.1441 C   0  0  0  0  0  0  0  0  0  0  0  0
    6.8536   18.9217    4.2480 C   0  0  0  0  0  0  0  0  0  0  0  0
  1  3  1  0  0  0  0
  1  5  1  0  0  0  0
  1  6  2  0  0  0  0
  2  5  2  0  0  0  0
  2 11  1  0  0  0  0
  2  4  1  0  0  0  0
  6 10  1  0  0  0  0
  7  8  2  0  0  0  0
  7 12  1  0  0  0  0
  8  9  1  0  0  0  0
  9 10  2  0  0  0  0
 10 11  1  0  0  0  0
 11 12  2  0  0  0  0
M  END
>  <CHROM.1>
5.71653678,17.18251966,4.36867349,2.21390446,-0.95532646,-2.05564186

>  <Name>
ligand

>  <RI>
0

>  <Rbt.Current_Directory>
/home/itssahil/PROJECTS/Mol_Feturizer/Test_systems_manuscript/rnas/4lx5

>  <Rbt.Executable>
rbdock ($Id: //depot/dev/client3/rdock/2013.1/src/exe/rbdock.cxx#4 $)

>  <Rbt.Library>
libRbt.so (2013.1, Build901 2013/11/27)

>  <Rbt.Parameter_File>
/export/apps/rDock/src/rDock_2013.1_src/data/scripts/dock_solv.prm

>  <Rbt.Receptor>
prm/pocket_docking_3.prm

>  <SCORE>
-15.0106

>  <SCORE.INTER>
-15.0106

>  <SCORE.INTER.CONST>
1

>  <SCORE.INTER.POLAR>
0

>  <SCORE.INTER.ROT>
0

>  <SCORE.INTER.SOLV>
16.0307

>  <SCORE.INTER.VDW>
-18.9506

>  <SCORE.INTER.norm>
-1.25088

>  <SCORE.INTRA>
0

>  <SCORE.INTRA.DIHEDRAL>
0

>  <SCORE.INTRA.DIHEDRAL.0>
0

>  <SCORE.INTRA.POLAR>
0

>  <SCORE.INTRA.POLAR.0>
0

>  <SCORE.INTRA.REPUL>
0

>  <SCORE.INTRA.REPUL.0>
0

>  <SCORE.INTRA.SOLV>
0

>  <SCORE.INTRA.SOLV.lig_0>
-48.1583

>  <SCORE.INTRA.VDW>
0

>  <SCORE.INTRA.VDW.0>
0

>  <SCORE.INTRA.norm>
0

>  <SCORE.RESTR>
0

>  <SCORE.RESTR.CAVITY>
0

>  <SCORE.RESTR.norm>
0

>  <SCORE.SYSTEM>
0

>  <SCORE.SYSTEM.CONST>
0

>  <SCORE.SYSTEM.DIHEDRAL>
0

>  <SCORE.SYSTEM.SOLV>
0

>  <SCORE.SYSTEM.norm>
0

>  <SCORE.heavy>
12

>  <SCORE.norm>
-1.25088

>  <RMSD>
3.028

$$$$
ligand
 OpenBabel02271912143D
libRbt.so/2013.1/901 2013/11/27
 12 13  0  0  0  0  0  0  0  0999 V2000
    4.7717   15.4518    3.9048 C   0  0  0  0  0  0  0  0  0  0  0  0
    6.1108   17.1113    2.9626 C   0  0  0  0  0  0  0  0  0  0  0  0
    4.1190   14.3008    3.7700 N   0  0  0  0  0  0  0  0  0  0  0  0
    6.7631   17.6647    1.9344 N   0  0  0  0  0  0  0  0  0  0  0  0
    5.4264   15.9661    2.8408 N   0  0  0  0  0  0  0  0  0  0  0  0
    4.7926   16.0723    5.1053 N   0  0  0  0  0  0  0  0  0  0  0  0
    6.8460   19.6344    5.5628 N   0  0  0  0  0  0  0  0  0  0  0  0
    6.1588   19.0671    6.6470 C   0  0  0  0  0  0  0  0  0  0  0  0
    5.4515   17.8538    6.4791 N   0  0  0  0  0  0  0  0  0  0  0  0
    5.4622   17.2394    5.2764 C   0  0  0  0  0  0  0  0  0  0  0  0
    6.1516   17.7858    4.1891 C   0  0  0  0  0  0  0  0  0  0  0  0
    6.8507   18.9852    4.3124 C   0  0  0  0  0  0  0  0  0  0  0  0
  1  3  1  0  0  0  0
  1  5  1  0  0  0  0
  1  6  2  0  0  0  0
  2  5  2  0  0  0  0
  2 11  1  0  0  0  0
  2  4  1  0  0  0  0
  6 10  1  0  0  0  0
  7  8  2  0  0  0  0
  7 12  1  0  0  0  0
  8  9  1  0  0  0  0
  9 10  2  0  0  0  0
 10 11  1  0  0  0  0
 11 12  2  0  0  0  0
M  END
>  <CHROM.1>
5.72856046,17.23454076,4.40516658,2.21124929,-0.96404065,-2.04011412

>  <Name>
ligand

>  <RI>
0

>  <Rbt.Current_Directory>
/home/itssahil/PROJECTS/Mol_Feturizer/Test_systems_manuscript/rnas/4lx5

>  <Rbt.Executable>
rbdock ($Id: //depot/dev/client3/rdock/2013.1/src/exe/rbdock.cxx#4 $)

>  <Rbt.Library>
libRbt.so (2013.1, Build901 2013/11/27)

>  <Rbt.Parameter_File>
/export/apps/rDock/src/rDock_2013.1_src/data/scripts/dock_solv.prm

>  <Rbt.Receptor>
prm/pocket_docking_4.prm

>  <SCORE>
-15.0684

>  <SCORE.INTER>
-15.0684

>  <SCORE.INTER.CONST>
1

>  <SCORE.INTER.POLAR>
0

>  <SCORE.INTER.ROT>
0

>  <SCORE.INTER.SOLV>
16.1214

>  <SCORE.INTER.VDW>
-19.0194

>  <SCORE.INTER.norm>
-1.2557

>  <SCORE.INTRA>
0

>  <SCORE.INTRA.DIHEDRAL>
0

>  <SCORE.INTRA.DIHEDRAL.0>
0

>  <SCORE.INTRA.POLAR>
0

>  <SCORE.INTRA.POLAR.0>
0

>  <SCORE.INTRA.REPUL>
0

>  <SCORE.INTRA.REPUL.0>
0

>  <SCORE.INTRA.SOLV>
0

>  <SCORE.INTRA.SOLV.lig_0>
-48.1583

>  <SCORE.INTRA.VDW>
0

>  <SCORE.INTRA.VDW.0>
0

>  <SCORE.INTRA.norm>
0

>  <SCORE.RESTR>
0

>  <SCORE.RESTR.CAVITY>
0

>  <SCORE.RESTR.norm>
0

>  <SCORE.SYSTEM>
0

>  <SCORE.SYSTEM.CONST>
0

>  <SCORE.SYSTEM.DIHEDRAL>
0

>  <SCORE.SYSTEM.SOLV>
0

>  <SCORE.SYSTEM.norm>
0

>  <SCORE.heavy>
12

>  <SCORE.norm>
-1.2557

>  <RMSD>
3.028

$$$$
ligand
 OpenBabel02271912143D
libRbt.so/2013.1/901 2013/11/27
 12 13  0  0  0  0  0  0  0  0999 V2000
    4.7361   15.4142    3.8895 C   0  0  0  0  0  0  0  0  0  0  0  0
    6.0673   17.0756    2.9394 C   0  0  0  0  0  0  0  0  0  0  0  0
    4.0831   14.2630    3.7582 N   0  0  0  0  0  0  0  0  0  0  0  0
    6.7116   17.6305    1.9070 N   0  0  0  0  0  0  0  0  0  0  0  0
    5.3827   15.9301    2.8214 N   0  0  0  0  0  0  0  0  0  0  0  0
    4.7656   16.0333    5.0906 N   0  0  0  0  0  0  0  0  0  0  0  0
    6.8205   19.5960    5.5371 N   0  0  0  0  0  0  0  0  0  0  0  0
    6.1416   19.0271    6.6256 C   0  0  0  0  0  0  0  0  0  0  0  0
    5.4337   17.8136    6.4615 N   0  0  0  0  0  0  0  0  0  0  0  0
    5.4358   17.2006    5.2581 C   0  0  0  0  0  0  0  0  0  0  0  0
    6.1169   17.7487    4.1664 C   0  0  0  0  0  0  0  0  0  0  0  0
    6.8162   18.9483    4.2858 C   0  0  0  0  0  0  0  0  0  0  0  0
  1  3  1  0  0  0  0
  1  5  1  0  0  0  0
  1  6  2  0  0  0  0
  2  5  2  0  0  0  0
  2 11  1  0  0  0  0
  2  4  1  0  0  0  0
  6 10  1  0  0  0  0
  7  8  2  0  0  0  0
  7 12  1  0  0  0  0
  8  9  1  0  0  0  0
  9 10  2  0  0  0  0
 10 11  1  0  0  0  0
 11 12  2  0  0  0  0
M  END
>  <CHROM.1>
5.69572902,17.19689134,4.38490893,2.22247381,-0.96784726,-2.02970377

>  <Name>
ligand

>  <RI>
0

>  <Rbt.Current_Directory>
/home/itssahil/PROJECTS/Mol_Feturizer/Test_systems_manuscript/rnas/4lx5

>  <Rbt.Executable>
rbdock ($Id: //depot/dev/client3/rdock/2013.1/src/exe/rbdock.cxx#4 $)

>  <Rbt.Library>
libRbt.so (2013.1, Build901 2013/11/27)

>  <Rbt.Parameter_File>
/export/apps/rDock/src/rDock_2013.1_src/data/scripts/dock_solv.prm

>  <Rbt.Receptor>
prm/pocket_docking_6.prm

>  <SCORE>
-15.0653

>  <SCORE.INTER>
-15.0653

>  <SCORE.INTER.CONST>
1

>  <SCORE.INTER.POLAR>
0

>  <SCORE.INTER.ROT>
0

>  <SCORE.INTER.SOLV>
15.9222

>  <SCORE.INTER.VDW>
-18.9509

>  <SCORE.INTER.norm>
-1.25544

>  <SCORE.INTRA>
0

>  <SCORE.INTRA.DIHEDRAL>
0

>  <SCORE.INTRA.DIHEDRAL.0>
0

>  <SCORE.INTRA.POLAR>
0

>  <SCORE.INTRA.POLAR.0>
0

>  <SCORE.INTRA.REPUL>
0

>  <SCORE.INTRA.REPUL.0>
0

>  <SCORE.INTRA.SOLV>
0

>  <SCORE.INTRA.SOLV.lig_0>
-48.1583

>  <SCORE.INTRA.VDW>
0

>  <SCORE.INTRA.VDW.0>
0

>  <SCORE.INTRA.norm>
0

>  <SCORE.RESTR>
0

>  <SCORE.RESTR.CAVITY>
0

>  <SCORE.RESTR.norm>
0

>  <SCORE.SYSTEM>
0

>  <SCORE.SYSTEM.CONST>
0

>  <SCORE.SYSTEM.DIHEDRAL>
0

>  <SCORE.SYSTEM.SOLV>
0

>  <SCORE.SYSTEM.norm>
0

>  <SCORE.heavy>
12

>  <SCORE.norm>
-1.25544

>  <RMSD>
3.028

$$$$
ligand
 OpenBabel02271912143D
libRbt.so/2013.1/901 2013/11/27
 12 13  0  0  0  0  0  0  0  0999 V2000
    4.7568   15.4328    3.9026 C   0  0  0  0  0  0  0  0  0  0  0  0
    6.1039   17.0771    2.9452 C   0  0  0  0  0  0  0  0  0  0  0  0
    4.0980   14.2842    3.7782 N   0  0  0  0  0  0  0  0  0  0  0  0
    6.7582   17.6182    1.9117 N   0  0  0  0  0  0  0  0  0  0  0  0
    5.4134   15.9345    2.8338 N   0  0  0  0  0  0  0  0  0  0  0  0
    4.7821   16.0634    5.0978 N   0  0  0  0  0  0  0  0  0  0  0  0
    6.8548   19.6184    5.5231 N   0  0  0  0  0  0  0  0  0  0  0  0
    6.1655   19.0641    6.6126 C   0  0  0  0  0  0  0  0  0  0  0  0
    5.4516   17.8531    6.4557 N   0  0  0  0  0  0  0  0  0  0  0  0
    5.4580   17.2284    5.2583 C   0  0  0  0  0  0  0  0  0  0  0  0
    6.1494   17.7618    4.1658 C   0  0  0  0  0  0  0  0  0  0  0  0
    6.8548   18.9585    4.2782 C   0  0  0  0  0  0  0  0  0  0  0  0
  1  3  1  0  0  0  0
  1  5  1  0  0  0  0
  1  6  2  0  0  0  0
  2  5  2  0  0  0  0
  2 11  1  0  0  0  0
  2  4  1  0  0  0  0
  6 10  1  0  0  0  0
  7  8  2  0  0  0  0
  7 12  1  0  0  0  0
  8  9  1  0  0  0  0
  9 10  2  0  0  0  0
 10 11  1  0  0  0  0
 11 12  2  0  0  0  0
M  END
>  <CHROM.1>
5.72358024,17.21467985,4.38693568,2.21676661,-0.95970224,-2.04414595

>  <Name>
ligand

>  <RI>
0

>  <Rbt.Current_Directory>
/home/itssahil/PROJECTS/Mol_Feturizer/Test_systems_manuscript/rnas/4lx5

>  <Rbt.Executable>
rbdock ($Id: //depot/dev/client3/rdock/2013.1/src/exe/rbdock.cxx#4 $)

>  <Rbt.Library>
libRbt.so (2013.1, Build901 2013/11/27)

>  <Rbt.Parameter_File>
/export/apps/rDock/src/rDock_2013.1_src/data/scripts/dock_solv.prm

>  <Rbt.Receptor>
prm/pocket_docking_6.prm

>  <SCORE>
-15.0256

>  <SCORE.INTER>
-15.0256

>  <SCORE.INTER.CONST>
1

>  <SCORE.INTER.POLAR>
0

>  <SCORE.INTER.ROT>
0

>  <SCORE.INTER.SOLV>
16.0586

>  <SCORE.INTER.VDW>
-18.9699

>  <SCORE.INTER.norm>
-1.25213

>  <SCORE.INTRA>
0

>  <SCORE.INTRA.DIHEDRAL>
0

>  <SCORE.INTRA.DIHEDRAL.0>
0

>  <SCORE.INTRA.POLAR>
0

>  <SCORE.INTRA.POLAR.0>
0

>  <SCORE.INTRA.REPUL>
0

>  <SCORE.INTRA.REPUL.0>
0

>  <SCORE.INTRA.SOLV>
0

>  <SCORE.INTRA.SOLV.lig_0>
-48.1583

>  <SCORE.INTRA.VDW>
0

>  <SCORE.INTRA.VDW.0>
0

>  <SCORE.INTRA.norm>
0

>  <SCORE.RESTR>
0

>  <SCORE.RESTR.CAVITY>
0

>  <SCORE.RESTR.norm>
0

>  <SCORE.SYSTEM>
0

>  <SCORE.SYSTEM.CONST>
0

>  <SCORE.SYSTEM.DIHEDRAL>
0

>  <SCORE.SYSTEM.SOLV>
0

>  <SCORE.SYSTEM.norm>
0

>  <SCORE.heavy>
12

>  <SCORE.norm>
-1.25213

>  <RMSD>
3.028

$$$$
ligand
 OpenBabel02271912143D
libRbt.so/2013.1/901 2013/11/27
 12 13  0  0  0  0  0  0  0  0999 V2000
    4.7786   15.4799    3.9131 C   0  0  0  0  0  0  0  0  0  0  0  0
    6.1467   17.1128    2.9660 C   0  0  0  0  0  0  0  0  0  0  0  0
    4.1156   14.3341    3.7852 N   0  0  0  0  0  0  0  0  0  0  0  0
    6.8174   17.6457    1.9388 N   0  0  0  0  0  0  0  0  0  0  0  0
    5.4518   15.9733    2.8507 N   0  0  0  0  0  0  0  0  0  0  0  0
    4.7913   16.1159    5.1055 N   0  0  0  0  0  0  0  0  0  0  0  0
    6.8765   19.6623    5.5419 N   0  0  0  0  0  0  0  0  0  0  0  0
    6.1700   19.1166    6.6248 C   0  0  0  0  0  0  0  0  0  0  0  0
    5.4520   17.9086    6.4639 N   0  0  0  0  0  0  0  0  0  0  0  0
    5.4710   17.2783    5.2697 C   0  0  0  0  0  0  0  0  0  0  0  0
    6.1796   17.8030    4.1840 C   0  0  0  0  0  0  0  0  0  0  0  0
    6.8897   18.9966    4.3002 C   0  0  0  0  0  0  0  0  0  0  0  0
  1  3  1  0  0  0  0
  1  5  1  0  0  0  0
  1  6  2  0  0  0  0
  2  5  2  0  0  0  0
  2 11  1  0  0  0  0
  2  4  1  0  0  0  0
  6 10  1  0  0  0  0
  7  8  2  0  0  0  0
  7 12  1  0  0  0  0
  8  9  1  0  0  0  0
  9 10  2  0  0  0  0
 10 11  1  0  0  0  0
 11 12  2  0  0  0  0
M  END
>  <CHROM.1>
5.74806500,17.25906525,4.40194258,2.20058218,-0.94901409,-2.06199499

>  <Name>
ligand

>  <RI>
0

>  <Rbt.Current_Directory>
/home/itssahil/PROJECTS/Mol_Feturizer/Test_systems_manuscript/rnas/4lx5

>  <Rbt.Executable>
rbdock ($Id: //depot/dev/client3/rdock/2013.1/src/exe/rbdock.cxx#4 $)

>  <Rbt.Library>
libRbt.so (2013.1, Build901 2013/11/27)

>  <Rbt.Parameter_File>
/export/apps/rDock/src/rDock_2013.1_src/data/scripts/dock_solv.prm

>  <Rbt.Receptor>
prm/pocket_docking_3.prm

>  <SCORE>
-15.0183

>  <SCORE.INTER>
-15.0183

>  <SCORE.INTER.CONST>
1

>  <SCORE.INTER.POLAR>
0

>  <SCORE.INTER.ROT>
0

>  <SCORE.INTER.SOLV>
16.1677

>  <SCORE.INTER.VDW>
-19.0014

>  <SCORE.INTER.norm>
-1.25152

>  <SCORE.INTRA>
0

>  <SCORE.INTRA.DIHEDRAL>
0

>  <SCORE.INTRA.DIHEDRAL.0>
0

>  <SCORE.INTRA.POLAR>
0

>  <SCORE.INTRA.POLAR.0>
0

>  <SCORE.INTRA.REPUL>
0

>  <SCORE.INTRA.REPUL.0>
0

>  <SCORE.INTRA.SOLV>
0

>  <SCORE.INTRA.SOLV.lig_0>
-48.1583

>  <SCORE.INTRA.VDW>
0

>  <SCORE.INTRA.VDW.0>
0

>  <SCORE.INTRA.norm>
0

>  <SCORE.RESTR>
0

>  <SCORE.RESTR.CAVITY>
0

>  <SCORE.RESTR.norm>
0

>  <SCORE.SYSTEM>
0

>  <SCORE.SYSTEM.CONST>
0

>  <SCORE.SYSTEM.DIHEDRAL>
0

>  <SCORE.SYSTEM.SOLV>
0

>  <SCORE.SYSTEM.norm>
0

>  <SCORE.heavy>
12

>  <SCORE.norm>
-1.25152

>  <RMSD>
3.029

$$$$
ligand
 OpenBabel02271912143D
libRbt.so/2013.1/901 2013/11/27
 12 13  0  0  0  0  0  0  0  0999 V2000
    4.7403   15.3919    3.8939 C   0  0  0  0  0  0  0  0  0  0  0  0
    6.1017   17.0233    2.9347 C   0  0  0  0  0  0  0  0  0  0  0  0
    4.0757   14.2463    3.7723 N   0  0  0  0  0  0  0  0  0  0  0  0
    6.7647   17.5549    1.9018 N   0  0  0  0  0  0  0  0  0  0  0  0
    5.4054   15.8839    2.8259 N   0  0  0  0  0  0  0  0  0  0  0  0
    4.7625   16.0291    5.0856 N   0  0  0  0  0  0  0  0  0  0  0  0
    6.8525   19.5749    5.5024 N   0  0  0  0  0  0  0  0  0  0  0  0
    6.1542   19.0306    6.5912 C   0  0  0  0  0  0  0  0  0  0  0  0
    5.4345   17.8227    6.4371 N   0  0  0  0  0  0  0  0  0  0  0  0
    5.4440   17.1913    5.2433 C   0  0  0  0  0  0  0  0  0  0  0  0
    6.1443   17.7146    4.1517 C   0  0  0  0  0  0  0  0  0  0  0  0
    6.8558   18.9080    4.2613 C   0  0  0  0  0  0  0  0  0  0  0  0
  1  3  1  0  0  0  0
  1  5  1  0  0  0  0
  1  6  2  0  0  0  0
  2  5  2  0  0  0  0
  2 11  1  0  0  0  0
  2  4  1  0  0  0  0
  6 10  1  0  0  0  0
  7  8  2  0  0  0  0
  7 12  1  0  0  0  0
  8  9  1  0  0  0  0
  9 10  2  0  0  0  0
 10 11  1  0  0  0  0
 11 12  2  0  0  0  0
M  END
>  <CHROM.1>
5.71426415,17.17110267,4.37351661,2.21271693,-0.95223959,-2.05308816

>  <Name>
ligand

>  <RI>
0

>  <Rbt.Current_Directory>
/home/itssahil/PROJECTS/Mol_Feturizer/Test_systems_manuscript/rnas/4lx5

>  <Rbt.Executable>
rbdock ($Id: //depot/dev/client3/rdock/2013.1/src/exe/rbdock.cxx#4 $)

>  <Rbt.Library>
libRbt.so (2013.1, Build901 2013/11/27)

>  <Rbt.Parameter_File>
/export/apps/rDock/src/rDock_2013.1_src/data/scripts/dock_solv.prm

>  <Rbt.Receptor>
prm/pocket_docking_8.prm

>  <SCORE>
-15.0192

>  <SCORE.INTER>
-15.0192

>  <SCORE.INTER.CONST>
1

>  <SCORE.INTER.POLAR>
0

>  <SCORE.INTER.ROT>
0

>  <SCORE.INTER.SOLV>
15.9774

>  <SCORE.INTER.VDW>
-18.9386

>  <SCORE.INTER.norm>
-1.2516

>  <SCORE.INTRA>
0

>  <SCORE.INTRA.DIHEDRAL>
0

>  <SCORE.INTRA.DIHEDRAL.0>
0

>  <SCORE.INTRA.POLAR>
0

>  <SCORE.INTRA.POLAR.0>
0

>  <SCORE.INTRA.REPUL>
0

>  <SCORE.INTRA.REPUL.0>
0

>  <SCORE.INTRA.SOLV>
0

>  <SCORE.INTRA.SOLV.lig_0>
-48.1583

>  <SCORE.INTRA.VDW>
0

>  <SCORE.INTRA.VDW.0>
0

>  <SCORE.INTRA.norm>
0

>  <SCORE.RESTR>
0

>  <SCORE.RESTR.CAVITY>
0

>  <SCORE.RESTR.norm>
0

>  <SCORE.SYSTEM>
0

>  <SCORE.SYSTEM.CONST>
0

>  <SCORE.SYSTEM.DIHEDRAL>
0

>  <SCORE.SYSTEM.SOLV>
0

>  <SCORE.SYSTEM.norm>
0

>  <SCORE.heavy>
12

>  <SCORE.norm>
-1.2516

>  <RMSD>
3.029

$$$$
ligand
 OpenBabel02271912143D
libRbt.so/2013.1/901 2013/11/27
 12 13  0  0  0  0  0  0  0  0999 V2000
    4.7513   15.4292    3.9066 C   0  0  0  0  0  0  0  0  0  0  0  0
    6.0925   17.0784    2.9494 C   0  0  0  0  0  0  0  0  0  0  0  0
    4.0940   14.2798    3.7812 N   0  0  0  0  0  0  0  0  0  0  0  0
    6.7427   17.6233    1.9154 N   0  0  0  0  0  0  0  0  0  0  0  0
    5.4036   15.9349    2.8371 N   0  0  0  0  0  0  0  0  0  0  0  0
    4.7792   16.0567    5.1034 N   0  0  0  0  0  0  0  0  0  0  0  0
    6.8470   19.6141    5.5318 N   0  0  0  0  0  0  0  0  0  0  0  0
    6.1620   19.0557    6.6220 C   0  0  0  0  0  0  0  0  0  0  0  0
    5.4497   17.8439    6.4640 N   0  0  0  0  0  0  0  0  0  0  0  0
    5.4535   17.2224    5.2649 C   0  0  0  0  0  0  0  0  0  0  0  0
    6.1406   17.7599    4.1717 C   0  0  0  0  0  0  0  0  0  0  0  0
    6.8444   18.9575    4.2852 C   0  0  0  0  0  0  0  0  0  0  0  0
  1  3  1  0  0  0  0
  1  5  1  0  0  0  0
  1  6  2  0  0  0  0
  2  5  2  0  0  0  0
  2 11  1  0  0  0  0
  2  4  1  0  0  0  0
  6 10  1  0  0  0  0
  7  8  2  0  0  0  0
  7 12  1  0  0  0  0
  8  9  1  0  0  0  0
  9 10  2  0  0  0  0
 10 11  1  0  0  0  0
 11 12  2  0  0  0  0
M  END
>  <CHROM.1>
5.71644730,17.21144890,4.39269311,2.22018608,-0.96263855,-2.03867908

>  <Name>
ligand

>  <RI>
0

>  <Rbt.Current_Directory>
/home/itssahil/PROJECTS/Mol_Feturizer/Test_systems_manuscript/rnas/4lx5

>  <Rbt.Executable>
rbdock ($Id: //depot/dev/client3/rdock/2013.1/src/exe/rbdock.cxx#4 $)

>  <Rbt.Library>
libRbt.so (2013.1, Build901 2013/11/27)

>  <Rbt.Parameter_File>
/export/apps/rDock/src/rDock_2013.1_src/data/scripts/dock_solv.prm

>  <Rbt.Receptor>
prm/blind_docking_60.prm

>  <SCORE>
-15.0672

>  <SCORE.INTER>
-15.0672

>  <SCORE.INTER.CONST>
1

>  <SCORE.INTER.POLAR>
0

>  <SCORE.INTER.ROT>
0

>  <SCORE.INTER.SOLV>
16.0205

>  <SCORE.INTER.VDW>
-18.985

>  <SCORE.INTER.norm>
-1.2556

>  <SCORE.INTRA>
0

>  <SCORE.INTRA.DIHEDRAL>
0

>  <SCORE.INTRA.DIHEDRAL.0>
0

>  <SCORE.INTRA.POLAR>
0

>  <SCORE.INTRA.POLAR.0>
0

>  <SCORE.INTRA.REPUL>
0

>  <SCORE.INTRA.REPUL.0>
0

>  <SCORE.INTRA.SOLV>
0

>  <SCORE.INTRA.SOLV.lig_0>
-48.1583

>  <SCORE.INTRA.VDW>
0

>  <SCORE.INTRA.VDW.0>
0

>  <SCORE.INTRA.norm>
0

>  <SCORE.RESTR>
0

>  <SCORE.RESTR.CAVITY>
0

>  <SCORE.RESTR.norm>
0

>  <SCORE.SYSTEM>
0

>  <SCORE.SYSTEM.CONST>
0

>  <SCORE.SYSTEM.DIHEDRAL>
0

>  <SCORE.SYSTEM.SOLV>
0

>  <SCORE.SYSTEM.norm>
0

>  <SCORE.heavy>
12

>  <SCORE.norm>
-1.2556

>  <RMSD>
3.030

$$$$
ligand
 OpenBabel02271912143D
libRbt.so/2013.1/901 2013/11/27
 12 13  0  0  0  0  0  0  0  0999 V2000
    4.7541   15.4196    3.9034 C   0  0  0  0  0  0  0  0  0  0  0  0
    6.0862   17.0779    2.9492 C   0  0  0  0  0  0  0  0  0  0  0  0
    4.1047   14.2659    3.7764 N   0  0  0  0  0  0  0  0  0  0  0  0
    6.7348   17.6274    1.9166 N   0  0  0  0  0  0  0  0  0  0  0  0
    5.4052   15.9299    2.8353 N   0  0  0  0  0  0  0  0  0  0  0  0
    4.7754   16.0470    5.1003 N   0  0  0  0  0  0  0  0  0  0  0  0
    6.8186   19.6181    5.5335 N   0  0  0  0  0  0  0  0  0  0  0  0
    6.1352   19.0548    6.6223 C   0  0  0  0  0  0  0  0  0  0  0  0
    5.4313   17.8384    6.4626 N   0  0  0  0  0  0  0  0  0  0  0  0
    5.4416   17.2172    5.2635 C   0  0  0  0  0  0  0  0  0  0  0  0
    6.1273   17.7595    4.1718 C   0  0  0  0  0  0  0  0  0  0  0  0
    6.8229   18.9617    4.2868 C   0  0  0  0  0  0  0  0  0  0  0  0
  1  3  1  0  0  0  0
  1  5  1  0  0  0  0
  1  6  2  0  0  0  0
  2  5  2  0  0  0  0
  2 11  1  0  0  0  0
  2  4  1  0  0  0  0
  6 10  1  0  0  0  0
  7  8  2  0  0  0  0
  7 12  1  0  0  0  0
  8  9  1  0  0  0  0
  9 10  2  0  0  0  0
 10 11  1  0  0  0  0
 11 12  2  0  0  0  0
M  END
>  <CHROM.1>
5.70637123,17.20817159,4.39175719,2.21176015,-0.96766112,-2.04540253

>  <Name>
ligand

>  <RI>
0

>  <Rbt.Current_Directory>
/home/itssahil/PROJECTS/Mol_Feturizer/Test_systems_manuscript/rnas/4lx5

>  <Rbt.Executable>
rbdock ($Id: //depot/dev/client3/rdock/2013.1/src/exe/rbdock.cxx#4 $)

>  <Rbt.Library>
libRbt.so (2013.1, Build901 2013/11/27)

>  <Rbt.Parameter_File>
/export/apps/rDock/src/rDock_2013.1_src/data/scripts/dock_solv.prm

>  <Rbt.Receptor>
prm/pocket_docking_3.prm

>  <SCORE>
-15.1057

>  <SCORE.INTER>
-15.1057

>  <SCORE.INTER.CONST>
1

>  <SCORE.INTER.POLAR>
0

>  <SCORE.INTER.ROT>
0

>  <SCORE.INTER.SOLV>
16.0639

>  <SCORE.INTER.VDW>
-19.0251

>  <SCORE.INTER.norm>
-1.25881

>  <SCORE.INTRA>
0

>  <SCORE.INTRA.DIHEDRAL>
0

>  <SCORE.INTRA.DIHEDRAL.0>
0

>  <SCORE.INTRA.POLAR>
0

>  <SCORE.INTRA.POLAR.0>
0

>  <SCORE.INTRA.REPUL>
0

>  <SCORE.INTRA.REPUL.0>
0

>  <SCORE.INTRA.SOLV>
0

>  <SCORE.INTRA.SOLV.lig_0>
-48.1583

>  <SCORE.INTRA.VDW>
0

>  <SCORE.INTRA.VDW.0>
0

>  <SCORE.INTRA.norm>
0

>  <SCORE.RESTR>
0

>  <SCORE.RESTR.CAVITY>
0

>  <SCORE.RESTR.norm>
0

>  <SCORE.SYSTEM>
0

>  <SCORE.SYSTEM.CONST>
0

>  <SCORE.SYSTEM.DIHEDRAL>
0

>  <SCORE.SYSTEM.SOLV>
0

>  <SCORE.SYSTEM.norm>
0

>  <SCORE.heavy>
12

>  <SCORE.norm>
-1.25881

>  <RMSD>
3.030

$$$$
ligand
 OpenBabel02271912143D
libRbt.so/2013.1/901 2013/11/27
 12 13  0  0  0  0  0  0  0  0999 V2000
    4.7666   15.4521    3.9016 C   0  0  0  0  0  0  0  0  0  0  0  0
    6.1287   17.1008    2.9735 C   0  0  0  0  0  0  0  0  0  0  0  0
    4.1081   14.3052    3.7607 N   0  0  0  0  0  0  0  0  0  0  0  0
    6.7978   17.6476    1.9526 N   0  0  0  0  0  0  0  0  0  0  0  0
    5.4384   15.9599    2.8452 N   0  0  0  0  0  0  0  0  0  0  0  0
    4.7762   16.0750    5.1010 N   0  0  0  0  0  0  0  0  0  0  0  0
    6.8470   19.6245    5.5778 N   0  0  0  0  0  0  0  0  0  0  0  0
    6.1422   19.0640    6.6542 C   0  0  0  0  0  0  0  0  0  0  0  0
    5.4290   17.8550    6.4796 N   0  0  0  0  0  0  0  0  0  0  0  0
    5.4512   17.2381    5.2784 C   0  0  0  0  0  0  0  0  0  0  0  0
    6.1582   17.7776    4.1990 C   0  0  0  0  0  0  0  0  0  0  0  0
    6.8635   18.9726    4.3288 C   0  0  0  0  0  0  0  0  0  0  0  0
  1  3  1  0  0  0  0
  1  5  1  0  0  0  0
  1  6  2  0  0  0  0
  2  5  2  0  0  0  0
  2 11  1  0  0  0  0
  2  4  1  0  0  0  0
  6 10  1  0  0  0  0
  7  8  2  0  0  0  0
  7 12  1  0  0  0  0
  8  9  1  0  0  0  0
  9 10  2  0  0  0  0
 10 11  1  0  0  0  0
 11 12  2  0  0  0  0
M  END
>  <CHROM.1>
5.72871863,17.22956736,4.41068456,2.19657278,-0.95224405,-2.05419223

>  <Name>
ligand

>  <RI>
0

>  <Rbt.Current_Directory>
/home/itssahil/PROJECTS/Mol_Feturizer/Test_systems_manuscript/rnas/4lx5

>  <Rbt.Executable>
rbdock ($Id: //depot/dev/client3/rdock/2013.1/src/exe/rbdock.cxx#4 $)

>  <Rbt.Library>
libRbt.so (2013.1, Build901 2013/11/27)

>  <Rbt.Parameter_File>
/export/apps/rDock/src/rDock_2013.1_src/data/scripts/dock_solv.prm

>  <Rbt.Receptor>
prm/pocket_docking_8.prm

>  <SCORE>
-15.0621

>  <SCORE.INTER>
-15.0621

>  <SCORE.INTER.CONST>
1

>  <SCORE.INTER.POLAR>
0

>  <SCORE.INTER.ROT>
0

>  <SCORE.INTER.SOLV>
16.0769

>  <SCORE.INTER.VDW>
-19.0003

>  <SCORE.INTER.norm>
-1.25517

>  <SCORE.INTRA>
0

>  <SCORE.INTRA.DIHEDRAL>
0

>  <SCORE.INTRA.DIHEDRAL.0>
0

>  <SCORE.INTRA.POLAR>
0

>  <SCORE.INTRA.POLAR.0>
0

>  <SCORE.INTRA.REPUL>
0

>  <SCORE.INTRA.REPUL.0>
0

>  <SCORE.INTRA.SOLV>
0

>  <SCORE.INTRA.SOLV.lig_0>
-48.1583

>  <SCORE.INTRA.VDW>
0

>  <SCORE.INTRA.VDW.0>
0

>  <SCORE.INTRA.norm>
0

>  <SCORE.RESTR>
0

>  <SCORE.RESTR.CAVITY>
0

>  <SCORE.RESTR.norm>
0

>  <SCORE.SYSTEM>
0

>  <SCORE.SYSTEM.CONST>
0

>  <SCORE.SYSTEM.DIHEDRAL>
0

>  <SCORE.SYSTEM.SOLV>
0

>  <SCORE.SYSTEM.norm>
0

>  <SCORE.heavy>
12

>  <SCORE.norm>
-1.25517

>  <RMSD>
3.030

$$$$
ligand
 OpenBabel02271912143D
libRbt.so/2013.1/901 2013/11/27
 12 13  0  0  0  0  0  0  0  0999 V2000
    4.7838   15.4723    3.9275 C   0  0  0  0  0  0  0  0  0  0  0  0
    6.1333   17.1104    2.9629 C   0  0  0  0  0  0  0  0  0  0  0  0
    4.1232   14.3242    3.8082 N   0  0  0  0  0  0  0  0  0  0  0  0
    6.7885   17.6459    1.9270 N   0  0  0  0  0  0  0  0  0  0  0  0
    5.4411   15.9684    2.8565 N   0  0  0  0  0  0  0  0  0  0  0  0
    4.8100   16.1082    5.1199 N   0  0  0  0  0  0  0  0  0  0  0  0
    6.8880   19.6619    5.5295 N   0  0  0  0  0  0  0  0  0  0  0  0
    6.1979   19.1134    6.6215 C   0  0  0  0  0  0  0  0  0  0  0  0
    5.4822   17.9029    6.4699 N   0  0  0  0  0  0  0  0  0  0  0  0
    5.4876   17.2729    5.2753 C   0  0  0  0  0  0  0  0  0  0  0  0
    6.1798   17.8004    4.1805 C   0  0  0  0  0  0  0  0  0  0  0  0
    6.8871   18.9965    4.2876 C   0  0  0  0  0  0  0  0  0  0  0  0
  1  3  1  0  0  0  0
  1  5  1  0  0  0  0
  1  6  2  0  0  0  0
  2  5  2  0  0  0  0
  2 11  1  0  0  0  0
  2  4  1  0  0  0  0
  6 10  1  0  0  0  0
  7  8  2  0  0  0  0
  7 12  1  0  0  0  0
  8  9  1  0  0  0  0
  9 10  2  0  0  0  0
 10 11  1  0  0  0  0
 11 12  2  0  0  0  0
M  END
>  <CHROM.1>
5.75320664,17.25487103,4.40396912,2.21794366,-0.95836169,-2.04759586

>  <Name>
ligand

>  <RI>
0

>  <Rbt.Current_Directory>
/home/itssahil/PROJECTS/Mol_Feturizer/Test_systems_manuscript/rnas/4lx5

>  <Rbt.Executable>
rbdock ($Id: //depot/dev/client3/rdock/2013.1/src/exe/rbdock.cxx#4 $)

>  <Rbt.Library>
libRbt.so (2013.1, Build901 2013/11/27)

>  <Rbt.Parameter_File>
/export/apps/rDock/src/rDock_2013.1_src/data/scripts/dock_solv.prm

>  <Rbt.Receptor>
prm/blind_docking_100.prm

>  <SCORE>
-15.0609

>  <SCORE.INTER>
-15.0609

>  <SCORE.INTER.CONST>
1

>  <SCORE.INTER.POLAR>
0

>  <SCORE.INTER.ROT>
0

>  <SCORE.INTER.SOLV>
16.2057

>  <SCORE.INTER.VDW>
-19.0425

>  <SCORE.INTER.norm>
-1.25508

>  <SCORE.INTRA>
0

>  <SCORE.INTRA.DIHEDRAL>
0

>  <SCORE.INTRA.DIHEDRAL.0>
0

>  <SCORE.INTRA.POLAR>
0

>  <SCORE.INTRA.POLAR.0>
0

>  <SCORE.INTRA.REPUL>
0

>  <SCORE.INTRA.REPUL.0>
0

>  <SCORE.INTRA.SOLV>
0

>  <SCORE.INTRA.SOLV.lig_0>
-48.1583

>  <SCORE.INTRA.VDW>
0

>  <SCORE.INTRA.VDW.0>
0

>  <SCORE.INTRA.norm>
0

>  <SCORE.RESTR>
0

>  <SCORE.RESTR.CAVITY>
0

>  <SCORE.RESTR.norm>
0

>  <SCORE.SYSTEM>
0

>  <SCORE.SYSTEM.CONST>
0

>  <SCORE.SYSTEM.DIHEDRAL>
0

>  <SCORE.SYSTEM.SOLV>
0

>  <SCORE.SYSTEM.norm>
0

>  <SCORE.heavy>
12

>  <SCORE.norm>
-1.25508

>  <RMSD>
3.031

$$$$
ligand
 OpenBabel02271912143D
libRbt.so/2013.1/901 2013/11/27
 12 13  0  0  0  0  0  0  0  0999 V2000
    4.7390   15.4049    3.9001 C   0  0  0  0  0  0  0  0  0  0  0  0
    6.0902   17.0471    2.9448 C   0  0  0  0  0  0  0  0  0  0  0  0
    4.0786   14.2573    3.7746 N   0  0  0  0  0  0  0  0  0  0  0  0
    6.7471   17.5871    1.9124 N   0  0  0  0  0  0  0  0  0  0  0  0
    5.3981   15.9056    2.8323 N   0  0  0  0  0  0  0  0  0  0  0  0
    4.7632   16.0356    5.0952 N   0  0  0  0  0  0  0  0  0  0  0  0
    6.8405   19.5875    5.5238 N   0  0  0  0  0  0  0  0  0  0  0  0
    6.1485   19.0342    6.6122 C   0  0  0  0  0  0  0  0  0  0  0  0
    5.4331   17.8244    6.4541 N   0  0  0  0  0  0  0  0  0  0  0  0
    5.4406   17.1996    5.2568 C   0  0  0  0  0  0  0  0  0  0  0  0
    6.1346   17.7319    4.1655 C   0  0  0  0  0  0  0  0  0  0  0  0
    6.8417   18.9274    4.2790 C   0  0  0  0  0  0  0  0  0  0  0  0
  1  3  1  0  0  0  0
  1  5  1  0  0  0  0
  1  6  2  0  0  0  0
  2  5  2  0  0  0  0
  2 11  1  0  0  0  0
  2  4  1  0  0  0  0
  6 10  1  0  0  0  0
  7  8  2  0  0  0  0
  7 12  1  0  0  0  0
  8  9  1  0  0  0  0
  9 10  2  0  0  0  0
 10 11  1  0  0  0  0
 11 12  2  0  0  0  0
M  END
>  <CHROM.1>
5.70761367,17.18535117,4.38588319,2.21533134,-0.95757997,-2.04539809

>  <Name>
ligand

>  <RI>
0

>  <Rbt.Current_Directory>
/home/itssahil/PROJECTS/Mol_Feturizer/Test_systems_manuscript/rnas/4lx5

>  <Rbt.Executable>
rbdock ($Id: //depot/dev/client3/rdock/2013.1/src/exe/rbdock.cxx#4 $)

>  <Rbt.Library>
libRbt.so (2013.1, Build901 2013/11/27)

>  <Rbt.Parameter_File>
/export/apps/rDock/src/rDock_2013.1_src/data/scripts/dock_solv.prm

>  <Rbt.Receptor>
prm/pocket_docking_3.prm

>  <SCORE>
-15.0089

>  <SCORE.INTER>
-15.0089

>  <SCORE.INTER.CONST>
1

>  <SCORE.INTER.POLAR>
0

>  <SCORE.INTER.ROT>
0

>  <SCORE.INTER.SOLV>
15.9584

>  <SCORE.INTER.VDW>
-18.9254

>  <SCORE.INTER.norm>
-1.25074

>  <SCORE.INTRA>
0

>  <SCORE.INTRA.DIHEDRAL>
0

>  <SCORE.INTRA.DIHEDRAL.0>
0

>  <SCORE.INTRA.POLAR>
0

>  <SCORE.INTRA.POLAR.0>
0

>  <SCORE.INTRA.REPUL>
0

>  <SCORE.INTRA.REPUL.0>
0

>  <SCORE.INTRA.SOLV>
0

>  <SCORE.INTRA.SOLV.lig_0>
-48.1583

>  <SCORE.INTRA.VDW>
0

>  <SCORE.INTRA.VDW.0>
0

>  <SCORE.INTRA.norm>
0

>  <SCORE.RESTR>
0

>  <SCORE.RESTR.CAVITY>
0

>  <SCORE.RESTR.norm>
0

>  <SCORE.SYSTEM>
0

>  <SCORE.SYSTEM.CONST>
0

>  <SCORE.SYSTEM.DIHEDRAL>
0

>  <SCORE.SYSTEM.SOLV>
0

>  <SCORE.SYSTEM.norm>
0

>  <SCORE.heavy>
12

>  <SCORE.norm>
-1.25074

>  <RMSD>
3.031

$$$$
ligand
 OpenBabel02271912143D
libRbt.so/2013.1/901 2013/11/27
 12 13  0  0  0  0  0  0  0  0999 V2000
    4.7638   15.4204    3.9181 C   0  0  0  0  0  0  0  0  0  0  0  0
    6.0824   17.0758    2.9403 C   0  0  0  0  0  0  0  0  0  0  0  0
    4.1115   14.2670    3.8033 N   0  0  0  0  0  0  0  0  0  0  0  0
    6.7152   17.6229    1.8967 N   0  0  0  0  0  0  0  0  0  0  0  0
    5.3986   15.9282    2.8390 N   0  0  0  0  0  0  0  0  0  0  0  0
    4.8044   16.0498    5.1134 N   0  0  0  0  0  0  0  0  0  0  0  0
    6.8573   19.6197    5.5085 N   0  0  0  0  0  0  0  0  0  0  0  0
    6.1905   19.0590    6.6087 C   0  0  0  0  0  0  0  0  0  0  0  0
    5.4831   17.8429    6.4622 N   0  0  0  0  0  0  0  0  0  0  0  0
    5.4742   17.2197    5.2641 C   0  0  0  0  0  0  0  0  0  0  0  0
    6.1432   17.7595    4.1609 C   0  0  0  0  0  0  0  0  0  0  0  0
    6.8415   18.9612    4.2630 C   0  0  0  0  0  0  0  0  0  0  0  0
  1  3  1  0  0  0  0
  1  5  1  0  0  0  0
  1  6  2  0  0  0  0
  2  5  2  0  0  0  0
  2 11  1  0  0  0  0
  2  4  1  0  0  0  0
  6 10  1  0  0  0  0
  7  8  2  0  0  0  0
  7 12  1  0  0  0  0
  8  9  1  0  0  0  0
  9 10  2  0  0  0  0
 10 11  1  0  0  0  0
 11 12  2  0  0  0  0
M  END
>  <CHROM.1>
5.72522711,17.20886698,4.38841026,2.23722882,-0.97386380,-2.02610188

>  <Name>
ligand

>  <RI>
0

>  <Rbt.Current_Directory>
/home/itssahil/PROJECTS/Mol_Feturizer/Test_systems_manuscript/rnas/4lx5

>  <Rbt.Executable>
rbdock ($Id: //depot/dev/client3/rdock/2013.1/src/exe/rbdock.cxx#4 $)

>  <Rbt.Library>
libRbt.so (2013.1, Build901 2013/11/27)

>  <Rbt.Parameter_File>
/export/apps/rDock/src/rDock_2013.1_src/data/scripts/dock_solv.prm

>  <Rbt.Receptor>
prm/pocket_docking_4.prm

>  <SCORE>
-15.0294

>  <SCORE.INTER>
-15.0294

>  <SCORE.INTER.CONST>
1

>  <SCORE.INTER.POLAR>
0

>  <SCORE.INTER.ROT>
0

>  <SCORE.INTER.SOLV>
16.1082

>  <SCORE.INTER.VDW>
-18.989

>  <SCORE.INTER.norm>
-1.25245

>  <SCORE.INTRA>
0

>  <SCORE.INTRA.DIHEDRAL>
0

>  <SCORE.INTRA.DIHEDRAL.0>
0

>  <SCORE.INTRA.POLAR>
0

>  <SCORE.INTRA.POLAR.0>
0

>  <SCORE.INTRA.REPUL>
0

>  <SCORE.INTRA.REPUL.0>
0

>  <SCORE.INTRA.SOLV>
0

>  <SCORE.INTRA.SOLV.lig_0>
-48.1583

>  <SCORE.INTRA.VDW>
0

>  <SCORE.INTRA.VDW.0>
0

>  <SCORE.INTRA.norm>
0

>  <SCORE.RESTR>
0

>  <SCORE.RESTR.CAVITY>
0

>  <SCORE.RESTR.norm>
0

>  <SCORE.SYSTEM>
0

>  <SCORE.SYSTEM.CONST>
0

>  <SCORE.SYSTEM.DIHEDRAL>
0

>  <SCORE.SYSTEM.SOLV>
0

>  <SCORE.SYSTEM.norm>
0

>  <SCORE.heavy>
12

>  <SCORE.norm>
-1.25245

>  <RMSD>
3.031

$$$$
ligand
 OpenBabel02271912143D
libRbt.so/2013.1/901 2013/11/27
 12 13  0  0  0  0  0  0  0  0999 V2000
    4.7524   15.4309    3.9136 C   0  0  0  0  0  0  0  0  0  0  0  0
    6.0892   17.0776    2.9459 C   0  0  0  0  0  0  0  0  0  0  0  0
    4.0944   14.2814    3.7942 N   0  0  0  0  0  0  0  0  0  0  0  0
    6.7344   17.6199    1.9074 N   0  0  0  0  0  0  0  0  0  0  0  0
    5.3996   15.9340    2.8397 N   0  0  0  0  0  0  0  0  0  0  0  0
    4.7863   16.0612    5.1087 N   0  0  0  0  0  0  0  0  0  0  0  0
    6.8568   19.6194    5.5185 N   0  0  0  0  0  0  0  0  0  0  0  0
    6.1771   19.0636    6.6133 C   0  0  0  0  0  0  0  0  0  0  0  0
    5.4639   17.8516    6.4618 N   0  0  0  0  0  0  0  0  0  0  0  0
    5.4616   17.2273    5.2642 C   0  0  0  0  0  0  0  0  0  0  0  0
    6.1434   17.7621    4.1664 C   0  0  0  0  0  0  0  0  0  0  0  0
    6.8479   18.9598    4.2735 C   0  0  0  0  0  0  0  0  0  0  0  0
  1  3  1  0  0  0  0
  1  5  1  0  0  0  0
  1  6  2  0  0  0  0
  2  5  2  0  0  0  0
  2 11  1  0  0  0  0
  2  4  1  0  0  0  0
  6 10  1  0  0  0  0
  7  8  2  0  0  0  0
  7 12  1  0  0  0  0
  8  9  1  0  0  0  0
  9 10  2  0  0  0  0
 10 11  1  0  0  0  0
 11 12  2  0  0  0  0
M  END
>  <CHROM.1>
5.72027498,17.21417551,4.39070977,2.22802656,-0.96469036,-2.03462627

>  <Name>
ligand

>  <RI>
0

>  <Rbt.Current_Directory>
/home/itssahil/PROJECTS/Mol_Feturizer/Test_systems_manuscript/rnas/4lx5

>  <Rbt.Executable>
rbdock ($Id: //depot/dev/client3/rdock/2013.1/src/exe/rbdock.cxx#4 $)

>  <Rbt.Library>
libRbt.so (2013.1, Build901 2013/11/27)

>  <Rbt.Parameter_File>
/export/apps/rDock/src/rDock_2013.1_src/data/scripts/dock_solv.prm

>  <Rbt.Receptor>
prm/pocket_docking_5.prm

>  <SCORE>
-15.0669

>  <SCORE.INTER>
-15.0669

>  <SCORE.INTER.CONST>
1

>  <SCORE.INTER.POLAR>
0

>  <SCORE.INTER.ROT>
0

>  <SCORE.INTER.SOLV>
16.0314

>  <SCORE.INTER.VDW>
-18.9884

>  <SCORE.INTER.norm>
-1.25558

>  <SCORE.INTRA>
0

>  <SCORE.INTRA.DIHEDRAL>
0

>  <SCORE.INTRA.DIHEDRAL.0>
0

>  <SCORE.INTRA.POLAR>
0

>  <SCORE.INTRA.POLAR.0>
0

>  <SCORE.INTRA.REPUL>
0

>  <SCORE.INTRA.REPUL.0>
0

>  <SCORE.INTRA.SOLV>
0

>  <SCORE.INTRA.SOLV.lig_0>
-48.1583

>  <SCORE.INTRA.VDW>
0

>  <SCORE.INTRA.VDW.0>
0

>  <SCORE.INTRA.norm>
0

>  <SCORE.RESTR>
0

>  <SCORE.RESTR.CAVITY>
0

>  <SCORE.RESTR.norm>
0

>  <SCORE.SYSTEM>
0

>  <SCORE.SYSTEM.CONST>
0

>  <SCORE.SYSTEM.DIHEDRAL>
0

>  <SCORE.SYSTEM.SOLV>
0

>  <SCORE.SYSTEM.norm>
0

>  <SCORE.heavy>
12

>  <SCORE.norm>
-1.25558

>  <RMSD>
3.031

$$$$
ligand
 OpenBabel02271912143D
libRbt.so/2013.1/901 2013/11/27
 12 13  0  0  0  0  0  0  0  0999 V2000
    4.7384   15.3942    3.9014 C   0  0  0  0  0  0  0  0  0  0  0  0
    6.0896   17.0295    2.9344 C   0  0  0  0  0  0  0  0  0  0  0  0
    4.0769   14.2465    3.7837 N   0  0  0  0  0  0  0  0  0  0  0  0
    6.7455   17.5628    1.8978 N   0  0  0  0  0  0  0  0  0  0  0  0
    5.3964   15.8879    2.8297 N   0  0  0  0  0  0  0  0  0  0  0  0
    4.7648   16.0320    5.0927 N   0  0  0  0  0  0  0  0  0  0  0  0
    6.8457   19.5847    5.4970 N   0  0  0  0  0  0  0  0  0  0  0  0
    6.1548   19.0386    6.5897 C   0  0  0  0  0  0  0  0  0  0  0  0
    5.4381   17.8284    6.4399 N   0  0  0  0  0  0  0  0  0  0  0  0
    5.4434   17.1964    5.2464 C   0  0  0  0  0  0  0  0  0  0  0  0
    6.1363   17.7216    4.1509 C   0  0  0  0  0  0  0  0  0  0  0  0
    6.8446   18.9172    4.2562 C   0  0  0  0  0  0  0  0  0  0  0  0
  1  3  1  0  0  0  0
  1  5  1  0  0  0  0
  1  6  2  0  0  0  0
  2  5  2  0  0  0  0
  2 11  1  0  0  0  0
  2  4  1  0  0  0  0
  6 10  1  0  0  0  0
  7  8  2  0  0  0  0
  7 12  1  0  0  0  0
  8  9  1  0  0  0  0
  9 10  2  0  0  0  0
 10 11  1  0  0  0  0
 11 12  2  0  0  0  0
M  END
>  <CHROM.1>
5.70919717,17.17675517,4.37513847,2.21819059,-0.95747738,-2.04904790

>  <Name>
ligand

>  <RI>
0

>  <Rbt.Current_Directory>
/home/itssahil/PROJECTS/Mol_Feturizer/Test_systems_manuscript/rnas/4lx5

>  <Rbt.Executable>
rbdock ($Id: //depot/dev/client3/rdock/2013.1/src/exe/rbdock.cxx#4 $)

>  <Rbt.Library>
libRbt.so (2013.1, Build901 2013/11/27)

>  <Rbt.Parameter_File>
/export/apps/rDock/src/rDock_2013.1_src/data/scripts/dock_solv.prm

>  <Rbt.Receptor>
prm/pocket_docking_8.prm

>  <SCORE>
-15.0195

>  <SCORE.INTER>
-15.0195

>  <SCORE.INTER.CONST>
1

>  <SCORE.INTER.POLAR>
0

>  <SCORE.INTER.ROT>
0

>  <SCORE.INTER.SOLV>
15.9761

>  <SCORE.INTER.VDW>
-18.9384

>  <SCORE.INTER.norm>
-1.25163

>  <SCORE.INTRA>
0

>  <SCORE.INTRA.DIHEDRAL>
0

>  <SCORE.INTRA.DIHEDRAL.0>
0

>  <SCORE.INTRA.POLAR>
0

>  <SCORE.INTRA.POLAR.0>
0

>  <SCORE.INTRA.REPUL>
0

>  <SCORE.INTRA.REPUL.0>
0

>  <SCORE.INTRA.SOLV>
0

>  <SCORE.INTRA.SOLV.lig_0>
-48.1583

>  <SCORE.INTRA.VDW>
0

>  <SCORE.INTRA.VDW.0>
0

>  <SCORE.INTRA.norm>
0

>  <SCORE.RESTR>
0

>  <SCORE.RESTR.CAVITY>
0

>  <SCORE.RESTR.norm>
0

>  <SCORE.SYSTEM>
0

>  <SCORE.SYSTEM.CONST>
0

>  <SCORE.SYSTEM.DIHEDRAL>
0

>  <SCORE.SYSTEM.SOLV>
0

>  <SCORE.SYSTEM.norm>
0

>  <SCORE.heavy>
12

>  <SCORE.norm>
-1.25163

>  <RMSD>
3.031

$$$$
ligand
 OpenBabel02271912143D
libRbt.so/2013.1/901 2013/11/27
 12 13  0  0  0  0  0  0  0  0999 V2000
    4.7635   15.4159    3.9138 C   0  0  0  0  0  0  0  0  0  0  0  0
    6.0806   17.0791    2.9475 C   0  0  0  0  0  0  0  0  0  0  0  0
    4.1191   14.2587    3.7934 N   0  0  0  0  0  0  0  0  0  0  0  0
    6.7193   17.6300    1.9094 N   0  0  0  0  0  0  0  0  0  0  0  0
    5.4046   15.9276    2.8403 N   0  0  0  0  0  0  0  0  0  0  0  0
    4.7900   16.0455    5.1095 N   0  0  0  0  0  0  0  0  0  0  0  0
    6.8182   19.6275    5.5223 N   0  0  0  0  0  0  0  0  0  0  0  0
    6.1453   19.0628    6.6167 C   0  0  0  0  0  0  0  0  0  0  0  0
    5.4464   17.8426    6.4641 N   0  0  0  0  0  0  0  0  0  0  0  0
    5.4515   17.2193    5.2660 C   0  0  0  0  0  0  0  0  0  0  0  0
    6.1268   17.7631    4.1686 C   0  0  0  0  0  0  0  0  0  0  0  0
    6.8171   18.9690    4.2767 C   0  0  0  0  0  0  0  0  0  0  0  0
  1  3  1  0  0  0  0
  1  5  1  0  0  0  0
  1  6  2  0  0  0  0
  2  5  2  0  0  0  0
  2 11  1  0  0  0  0
  2  4  1  0  0  0  0
  6 10  1  0  0  0  0
  7  8  2  0  0  0  0
  7 12  1  0  0  0  0
  8  9  1  0  0  0  0
  9 10  2  0  0  0  0
 10 11  1  0  0  0  0
 11 12  2  0  0  0  0
M  END
>  <CHROM.1>
5.71018859,17.21005948,4.39245523,2.21870633,-0.97528938,-2.04140802

>  <Name>
ligand

>  <RI>
0

>  <Rbt.Current_Directory>
/home/itssahil/PROJECTS/Mol_Feturizer/Test_systems_manuscript/rnas/4lx5

>  <Rbt.Executable>
rbdock ($Id: //depot/dev/client3/rdock/2013.1/src/exe/rbdock.cxx#4 $)

>  <Rbt.Library>
libRbt.so (2013.1, Build901 2013/11/27)

>  <Rbt.Parameter_File>
/export/apps/rDock/src/rDock_2013.1_src/data/scripts/dock_solv.prm

>  <Rbt.Receptor>
prm/pocket_docking_8.prm

>  <SCORE>
-15.0405

>  <SCORE.INTER>
-15.0405

>  <SCORE.INTER.CONST>
1

>  <SCORE.INTER.POLAR>
0

>  <SCORE.INTER.ROT>
0

>  <SCORE.INTER.SOLV>
16.1372

>  <SCORE.INTER.VDW>
-19.0061

>  <SCORE.INTER.norm>
-1.25338

>  <SCORE.INTRA>
0

>  <SCORE.INTRA.DIHEDRAL>
0

>  <SCORE.INTRA.DIHEDRAL.0>
0

>  <SCORE.INTRA.POLAR>
0

>  <SCORE.INTRA.POLAR.0>
0

>  <SCORE.INTRA.REPUL>
0

>  <SCORE.INTRA.REPUL.0>
0

>  <SCORE.INTRA.SOLV>
0

>  <SCORE.INTRA.SOLV.lig_0>
-48.1583

>  <SCORE.INTRA.VDW>
0

>  <SCORE.INTRA.VDW.0>
0

>  <SCORE.INTRA.norm>
0

>  <SCORE.RESTR>
0

>  <SCORE.RESTR.CAVITY>
0

>  <SCORE.RESTR.norm>
0

>  <SCORE.SYSTEM>
0

>  <SCORE.SYSTEM.CONST>
0

>  <SCORE.SYSTEM.DIHEDRAL>
0

>  <SCORE.SYSTEM.SOLV>
0

>  <SCORE.SYSTEM.norm>
0

>  <SCORE.heavy>
12

>  <SCORE.norm>
-1.25338

>  <RMSD>
3.031

$$$$
ligand
 OpenBabel02271912143D
libRbt.so/2013.1/901 2013/11/27
 12 13  0  0  0  0  0  0  0  0999 V2000
    4.7455   15.4527    3.8978 C   0  0  0  0  0  0  0  0  0  0  0  0
    6.1109   17.1027    2.9769 C   0  0  0  0  0  0  0  0  0  0  0  0
    4.0858   14.3071    3.7522 N   0  0  0  0  0  0  0  0  0  0  0  0
    6.7821   17.6521    1.9587 N   0  0  0  0  0  0  0  0  0  0  0  0
    5.4193   15.9631    2.8439 N   0  0  0  0  0  0  0  0  0  0  0  0
    4.7543   16.0716    5.0993 N   0  0  0  0  0  0  0  0  0  0  0  0
    6.8290   19.6169    5.5905 N   0  0  0  0  0  0  0  0  0  0  0  0
    6.1220   19.0538    6.6641 C   0  0  0  0  0  0  0  0  0  0  0  0
    5.4076   17.8463    6.4846 N   0  0  0  0  0  0  0  0  0  0  0  0
    5.4305   17.2332    5.2814 C   0  0  0  0  0  0  0  0  0  0  0  0
    6.1396   17.7755    4.2047 C   0  0  0  0  0  0  0  0  0  0  0  0
    6.8463   18.9691    4.3394 C   0  0  0  0  0  0  0  0  0  0  0  0
  1  3  1  0  0  0  0
  1  5  1  0  0  0  0
  1  6  2  0  0  0  0
  2  5  2  0  0  0  0
  2 11  1  0  0  0  0
  2  4  1  0  0  0  0
  6 10  1  0  0  0  0
  7  8  2  0  0  0  0
  7 12  1  0  0  0  0
  8  9  1  0  0  0  0
  9 10  2  0  0  0  0
 10 11  1  0  0  0  0
 11 12  2  0  0  0  0
M  END
>  <CHROM.1>
5.70921073,17.22727303,4.41399781,2.19555013,-0.95051602,-2.05171456

>  <Name>
ligand

>  <RI>
0

>  <Rbt.Current_Directory>
/home/itssahil/PROJECTS/Mol_Feturizer/Test_systems_manuscript/rnas/4lx5

>  <Rbt.Executable>
rbdock ($Id: //depot/dev/client3/rdock/2013.1/src/exe/rbdock.cxx#4 $)

>  <Rbt.Library>
libRbt.so (2013.1, Build901 2013/11/27)

>  <Rbt.Parameter_File>
/export/apps/rDock/src/rDock_2013.1_src/data/scripts/dock_solv.prm

>  <Rbt.Receptor>
prm/blind_docking_60.prm

>  <SCORE>
-15.0595

>  <SCORE.INTER>
-15.0595

>  <SCORE.INTER.CONST>
1

>  <SCORE.INTER.POLAR>
0

>  <SCORE.INTER.ROT>
0

>  <SCORE.INTER.SOLV>
15.9391

>  <SCORE.INTER.VDW>
-18.9527

>  <SCORE.INTER.norm>
-1.25496

>  <SCORE.INTRA>
0

>  <SCORE.INTRA.DIHEDRAL>
0

>  <SCORE.INTRA.DIHEDRAL.0>
0

>  <SCORE.INTRA.POLAR>
0

>  <SCORE.INTRA.POLAR.0>
0

>  <SCORE.INTRA.REPUL>
0

>  <SCORE.INTRA.REPUL.0>
0

>  <SCORE.INTRA.SOLV>
0

>  <SCORE.INTRA.SOLV.lig_0>
-48.1583

>  <SCORE.INTRA.VDW>
0

>  <SCORE.INTRA.VDW.0>
0

>  <SCORE.INTRA.norm>
0

>  <SCORE.RESTR>
0

>  <SCORE.RESTR.CAVITY>
0

>  <SCORE.RESTR.norm>
0

>  <SCORE.SYSTEM>
0

>  <SCORE.SYSTEM.CONST>
0

>  <SCORE.SYSTEM.DIHEDRAL>
0

>  <SCORE.SYSTEM.SOLV>
0

>  <SCORE.SYSTEM.norm>
0

>  <SCORE.heavy>
12

>  <SCORE.norm>
-1.25496

>  <RMSD>
3.032

$$$$
ligand
 OpenBabel02271912143D
libRbt.so/2013.1/901 2013/11/27
 12 13  0  0  0  0  0  0  0  0999 V2000
    4.7437   15.4281    3.9068 C   0  0  0  0  0  0  0  0  0  0  0  0
    6.0841   17.0809    2.9548 C   0  0  0  0  0  0  0  0  0  0  0  0
    4.0886   14.2778    3.7783 N   0  0  0  0  0  0  0  0  0  0  0  0
    6.7354   17.6286    1.9229 N   0  0  0  0  0  0  0  0  0  0  0  0
    5.3973   15.9365    2.8393 N   0  0  0  0  0  0  0  0  0  0  0  0
    4.7683   16.0537    5.1046 N   0  0  0  0  0  0  0  0  0  0  0  0
    6.8295   19.6138    5.5426 N   0  0  0  0  0  0  0  0  0  0  0  0
    6.1434   19.0525    6.6306 C   0  0  0  0  0  0  0  0  0  0  0  0
    5.4333   17.8399    6.4693 N   0  0  0  0  0  0  0  0  0  0  0  0
    5.4404   17.2203    5.2693 C   0  0  0  0  0  0  0  0  0  0  0  0
    6.1288   17.7606    4.1783 C   0  0  0  0  0  0  0  0  0  0  0  0
    6.8304   18.9592    4.2949 C   0  0  0  0  0  0  0  0  0  0  0  0
  1  3  1  0  0  0  0
  1  5  1  0  0  0  0
  1  6  2  0  0  0  0
  2  5  2  0  0  0  0
  2 11  1  0  0  0  0
  2  4  1  0  0  0  0
  6 10  1  0  0  0  0
  7  8  2  0  0  0  0
  7 12  1  0  0  0  0
  8  9  1  0  0  0  0
  9 10  2  0  0  0  0
 10 11  1  0  0  0  0
 11 12  2  0  0  0  0
M  END
>  <CHROM.1>
5.70505918,17.21111806,4.39754712,2.21590855,-0.96321044,-2.04060626

>  <Name>
ligand

>  <RI>
0

>  <Rbt.Current_Directory>
/home/itssahil/PROJECTS/Mol_Feturizer/Test_systems_manuscript/rnas/4lx5

>  <Rbt.Executable>
rbdock ($Id: //depot/dev/client3/rdock/2013.1/src/exe/rbdock.cxx#4 $)

>  <Rbt.Library>
libRbt.so (2013.1, Build901 2013/11/27)

>  <Rbt.Parameter_File>
/export/apps/rDock/src/rDock_2013.1_src/data/scripts/dock_solv.prm

>  <Rbt.Receptor>
prm/blind_docking_60.prm

>  <SCORE>
-15.1046

>  <SCORE.INTER>
-15.1046

>  <SCORE.INTER.CONST>
1

>  <SCORE.INTER.POLAR>
0

>  <SCORE.INTER.ROT>
0

>  <SCORE.INTER.SOLV>
15.9775

>  <SCORE.INTER.VDW>
-18.9956

>  <SCORE.INTER.norm>
-1.25872

>  <SCORE.INTRA>
0

>  <SCORE.INTRA.DIHEDRAL>
0

>  <SCORE.INTRA.DIHEDRAL.0>
0

>  <SCORE.INTRA.POLAR>
0

>  <SCORE.INTRA.POLAR.0>
0

>  <SCORE.INTRA.REPUL>
0

>  <SCORE.INTRA.REPUL.0>
0

>  <SCORE.INTRA.SOLV>
0

>  <SCORE.INTRA.SOLV.lig_0>
-48.1583

>  <SCORE.INTRA.VDW>
0

>  <SCORE.INTRA.VDW.0>
0

>  <SCORE.INTRA.norm>
0

>  <SCORE.RESTR>
0

>  <SCORE.RESTR.CAVITY>
0

>  <SCORE.RESTR.norm>
0

>  <SCORE.SYSTEM>
0

>  <SCORE.SYSTEM.CONST>
0

>  <SCORE.SYSTEM.DIHEDRAL>
0

>  <SCORE.SYSTEM.SOLV>
0

>  <SCORE.SYSTEM.norm>
0

>  <SCORE.heavy>
12

>  <SCORE.norm>
-1.25872

>  <RMSD>
3.032

$$$$
ligand
 OpenBabel02271912143D
libRbt.so/2013.1/901 2013/11/27
 12 13  0  0  0  0  0  0  0  0999 V2000
    4.7497   15.4256    3.9169 C   0  0  0  0  0  0  0  0  0  0  0  0
    6.0775   17.0763    2.9438 C   0  0  0  0  0  0  0  0  0  0  0  0
    4.0945   14.2741    3.8000 N   0  0  0  0  0  0  0  0  0  0  0  0
    6.7167   17.6208    1.9026 N   0  0  0  0  0  0  0  0  0  0  0  0
    5.3908   15.9307    2.8403 N   0  0  0  0  0  0  0  0  0  0  0  0
    4.7868   16.0558    5.1119 N   0  0  0  0  0  0  0  0  0  0  0  0
    6.8485   19.6199    5.5135 N   0  0  0  0  0  0  0  0  0  0  0  0
    6.1752   19.0620    6.6112 C   0  0  0  0  0  0  0  0  0  0  0  0
    5.4648   17.8479    6.4624 N   0  0  0  0  0  0  0  0  0  0  0  0
    5.4594   17.2238    5.2648 C   0  0  0  0  0  0  0  0  0  0  0  0
    6.1349   17.7608    4.1641 C   0  0  0  0  0  0  0  0  0  0  0  0
    6.8363   18.9605    4.2684 C   0  0  0  0  0  0  0  0  0  0  0  0
  1  3  1  0  0  0  0
  1  5  1  0  0  0  0
  1  6  2  0  0  0  0
  2  5  2  0  0  0  0
  2 11  1  0  0  0  0
  2  4  1  0  0  0  0
  6 10  1  0  0  0  0
  7  8  2  0  0  0  0
  7 12  1  0  0  0  0
  8  9  1  0  0  0  0
  9 10  2  0  0  0  0
 10 11  1  0  0  0  0
 11 12  2  0  0  0  0
M  END
>  <CHROM.1>
5.71431341,17.21158631,4.39015761,2.23243695,-0.96922718,-2.03081587

>  <Name>
ligand

>  <RI>
0

>  <Rbt.Current_Directory>
/home/itssahil/PROJECTS/Mol_Feturizer/Test_systems_manuscript/rnas/4lx5

>  <Rbt.Executable>
rbdock ($Id: //depot/dev/client3/rdock/2013.1/src/exe/rbdock.cxx#4 $)

>  <Rbt.Library>
libRbt.so (2013.1, Build901 2013/11/27)

>  <Rbt.Parameter_File>
/export/apps/rDock/src/rDock_2013.1_src/data/scripts/dock_solv.prm

>  <Rbt.Receptor>
prm/pocket_docking_5.prm

>  <SCORE>
-15.0747

>  <SCORE.INTER>
-15.0747

>  <SCORE.INTER.CONST>
1

>  <SCORE.INTER.POLAR>
0

>  <SCORE.INTER.ROT>
0

>  <SCORE.INTER.SOLV>
16.0229

>  <SCORE.INTER.VDW>
-18.9908

>  <SCORE.INTER.norm>
-1.25623

>  <SCORE.INTRA>
0

>  <SCORE.INTRA.DIHEDRAL>
0

>  <SCORE.INTRA.DIHEDRAL.0>
0

>  <SCORE.INTRA.POLAR>
0

>  <SCORE.INTRA.POLAR.0>
0

>  <SCORE.INTRA.REPUL>
0

>  <SCORE.INTRA.REPUL.0>
0

>  <SCORE.INTRA.SOLV>
0

>  <SCORE.INTRA.SOLV.lig_0>
-48.1583

>  <SCORE.INTRA.VDW>
0

>  <SCORE.INTRA.VDW.0>
0

>  <SCORE.INTRA.norm>
0

>  <SCORE.RESTR>
0

>  <SCORE.RESTR.CAVITY>
0

>  <SCORE.RESTR.norm>
0

>  <SCORE.SYSTEM>
0

>  <SCORE.SYSTEM.CONST>
0

>  <SCORE.SYSTEM.DIHEDRAL>
0

>  <SCORE.SYSTEM.SOLV>
0

>  <SCORE.SYSTEM.norm>
0

>  <SCORE.heavy>
12

>  <SCORE.norm>
-1.25623

>  <RMSD>
3.032

$$$$
ligand
 OpenBabel02271912143D
libRbt.so/2013.1/901 2013/11/27
 12 13  0  0  0  0  0  0  0  0999 V2000
    4.7786   15.4801    3.9268 C   0  0  0  0  0  0  0  0  0  0  0  0
    6.1339   17.1175    2.9692 C   0  0  0  0  0  0  0  0  0  0  0  0
    4.1162   14.3335    3.8033 N   0  0  0  0  0  0  0  0  0  0  0  0
    6.7928   17.6540    1.9362 N   0  0  0  0  0  0  0  0  0  0  0  0
    5.4397   15.9771    2.8586 N   0  0  0  0  0  0  0  0  0  0  0  0
    4.8029   16.1134    5.1206 N   0  0  0  0  0  0  0  0  0  0  0  0
    6.8866   19.6622    5.5432 N   0  0  0  0  0  0  0  0  0  0  0  0
    6.1925   19.1128    6.6322 C   0  0  0  0  0  0  0  0  0  0  0  0
    5.4749   17.9039    6.4761 N   0  0  0  0  0  0  0  0  0  0  0  0
    5.4823   17.2765    5.2802 C   0  0  0  0  0  0  0  0  0  0  0  0
    6.1785   17.8050    4.1884 C   0  0  0  0  0  0  0  0  0  0  0  0
    6.8877   18.9994    4.2999 C   0  0  0  0  0  0  0  0  0  0  0  0
  1  3  1  0  0  0  0
  1  5  1  0  0  0  0
  1  6  2  0  0  0  0
  2  5  2  0  0  0  0
  2 11  1  0  0  0  0
  2  4  1  0  0  0  0
  6 10  1  0  0  0  0
  7  8  2  0  0  0  0
  7 12  1  0  0  0  0
  8  9  1  0  0  0  0
  9 10  2  0  0  0  0
 10 11  1  0  0  0  0
 11 12  2  0  0  0  0
M  END
>  <CHROM.1>
5.75020169,17.25975952,4.40960202,2.21534943,-0.95542711,-2.04762090

>  <Name>
ligand

>  <RI>
0

>  <Rbt.Current_Directory>
/home/itssahil/PROJECTS/Mol_Feturizer/Test_systems_manuscript/rnas/4lx5

>  <Rbt.Executable>
rbdock ($Id: //depot/dev/client3/rdock/2013.1/src/exe/rbdock.cxx#4 $)

>  <Rbt.Library>
libRbt.so (2013.1, Build901 2013/11/27)

>  <Rbt.Parameter_File>
/export/apps/rDock/src/rDock_2013.1_src/data/scripts/dock_solv.prm

>  <Rbt.Receptor>
prm/pocket_docking_6.prm

>  <SCORE>
-15.0586

>  <SCORE.INTER>
-15.0586

>  <SCORE.INTER.CONST>
1

>  <SCORE.INTER.POLAR>
0

>  <SCORE.INTER.ROT>
0

>  <SCORE.INTER.SOLV>
16.1577

>  <SCORE.INTER.VDW>
-19.025

>  <SCORE.INTER.norm>
-1.25488

>  <SCORE.INTRA>
0

>  <SCORE.INTRA.DIHEDRAL>
0

>  <SCORE.INTRA.DIHEDRAL.0>
0

>  <SCORE.INTRA.POLAR>
0

>  <SCORE.INTRA.POLAR.0>
0

>  <SCORE.INTRA.REPUL>
0

>  <SCORE.INTRA.REPUL.0>
0

>  <SCORE.INTRA.SOLV>
0

>  <SCORE.INTRA.SOLV.lig_0>
-48.1583

>  <SCORE.INTRA.VDW>
0

>  <SCORE.INTRA.VDW.0>
0

>  <SCORE.INTRA.norm>
0

>  <SCORE.RESTR>
0

>  <SCORE.RESTR.CAVITY>
0

>  <SCORE.RESTR.norm>
0

>  <SCORE.SYSTEM>
0

>  <SCORE.SYSTEM.CONST>
0

>  <SCORE.SYSTEM.DIHEDRAL>
0

>  <SCORE.SYSTEM.SOLV>
0

>  <SCORE.SYSTEM.norm>
0

>  <SCORE.heavy>
12

>  <SCORE.norm>
-1.25488

>  <RMSD>
3.032

$$$$
ligand
 OpenBabel02271912143D
libRbt.so/2013.1/901 2013/11/27
 12 13  0  0  0  0  0  0  0  0999 V2000
    4.7463   15.4187    3.9144 C   0  0  0  0  0  0  0  0  0  0  0  0
    6.0708   17.0779    2.9512 C   0  0  0  0  0  0  0  0  0  0  0  0
    4.0956   14.2653    3.7914 N   0  0  0  0  0  0  0  0  0  0  0  0
    6.7108   17.6286    1.9139 N   0  0  0  0  0  0  0  0  0  0  0  0
    5.3885   15.9302    2.8415 N   0  0  0  0  0  0  0  0  0  0  0  0
    4.7778   16.0444    5.1119 N   0  0  0  0  0  0  0  0  0  0  0  0
    6.8256   19.6144    5.5327 N   0  0  0  0  0  0  0  0  0  0  0  0
    6.1512   19.0499    6.6264 C   0  0  0  0  0  0  0  0  0  0  0  0
    5.4457   17.8339    6.4710 N   0  0  0  0  0  0  0  0  0  0  0  0
    5.4457   17.2143    5.2710 C   0  0  0  0  0  0  0  0  0  0  0  0
    6.1223   17.7579    4.1743 C   0  0  0  0  0  0  0  0  0  0  0  0
    6.8191   18.9597    4.2851 C   0  0  0  0  0  0  0  0  0  0  0  0
  1  3  1  0  0  0  0
  1  5  1  0  0  0  0
  1  6  2  0  0  0  0
  2  5  2  0  0  0  0
  2 11  1  0  0  0  0
  2  4  1  0  0  0  0
  6 10  1  0  0  0  0
  7  8  2  0  0  0  0
  7 12  1  0  0  0  0
  8  9  1  0  0  0  0
  9 10  2  0  0  0  0
 10 11  1  0  0  0  0
 11 12  2  0  0  0  0
M  END
>  <CHROM.1>
5.70312496,17.20631739,4.39709972,2.22524053,-0.97123778,-2.03295513

>  <Name>
ligand

>  <RI>
0

>  <Rbt.Current_Directory>
/home/itssahil/PROJECTS/Mol_Feturizer/Test_systems_manuscript/rnas/4lx5

>  <Rbt.Executable>
rbdock ($Id: //depot/dev/client3/rdock/2013.1/src/exe/rbdock.cxx#4 $)

>  <Rbt.Library>
libRbt.so (2013.1, Build901 2013/11/27)

>  <Rbt.Parameter_File>
/export/apps/rDock/src/rDock_2013.1_src/data/scripts/dock_solv.prm

>  <Rbt.Receptor>
prm/blind_docking_100.prm

>  <SCORE>
-15.077

>  <SCORE.INTER>
-15.077

>  <SCORE.INTER.CONST>
1

>  <SCORE.INTER.POLAR>
0

>  <SCORE.INTER.ROT>
0

>  <SCORE.INTER.SOLV>
16.0083

>  <SCORE.INTER.VDW>
-18.9875

>  <SCORE.INTER.norm>
-1.25642

>  <SCORE.INTRA>
0

>  <SCORE.INTRA.DIHEDRAL>
0

>  <SCORE.INTRA.DIHEDRAL.0>
0

>  <SCORE.INTRA.POLAR>
0

>  <SCORE.INTRA.POLAR.0>
0

>  <SCORE.INTRA.REPUL>
0

>  <SCORE.INTRA.REPUL.0>
0

>  <SCORE.INTRA.SOLV>
0

>  <SCORE.INTRA.SOLV.lig_0>
-48.1583

>  <SCORE.INTRA.VDW>
0

>  <SCORE.INTRA.VDW.0>
0

>  <SCORE.INTRA.norm>
0

>  <SCORE.RESTR>
0

>  <SCORE.RESTR.CAVITY>
0

>  <SCORE.RESTR.norm>
0

>  <SCORE.SYSTEM>
0

>  <SCORE.SYSTEM.CONST>
0

>  <SCORE.SYSTEM.DIHEDRAL>
0

>  <SCORE.SYSTEM.SOLV>
0

>  <SCORE.SYSTEM.norm>
0

>  <SCORE.heavy>
12

>  <SCORE.norm>
-1.25642

>  <RMSD>
3.033

$$$$
ligand
 OpenBabel02271912143D
libRbt.so/2013.1/901 2013/11/27
 12 13  0  0  0  0  0  0  0  0999 V2000
    4.7912   15.4419    3.9264 C   0  0  0  0  0  0  0  0  0  0  0  0
    6.1198   17.1034    2.9729 C   0  0  0  0  0  0  0  0  0  0  0  0
    4.1409   14.2889    3.7977 N   0  0  0  0  0  0  0  0  0  0  0  0
    6.7641   17.6567    1.9396 N   0  0  0  0  0  0  0  0  0  0  0  0
    5.4378   15.9562    2.8574 N   0  0  0  0  0  0  0  0  0  0  0  0
    4.8180   16.0646    5.1257 N   0  0  0  0  0  0  0  0  0  0  0  0
    6.8645   19.6332    5.5640 N   0  0  0  0  0  0  0  0  0  0  0  0
    6.1857   19.0659    6.6534 C   0  0  0  0  0  0  0  0  0  0  0  0
    5.4806   17.8504    6.4921 N   0  0  0  0  0  0  0  0  0  0  0  0
    5.4854   17.2339    5.2905 C   0  0  0  0  0  0  0  0  0  0  0  0
    6.1665   17.7802    4.1979 C   0  0  0  0  0  0  0  0  0  0  0  0
    6.8630   18.9817    4.3147 C   0  0  0  0  0  0  0  0  0  0  0  0
  1  3  1  0  0  0  0
  1  5  1  0  0  0  0
  1  6  2  0  0  0  0
  2  5  2  0  0  0  0
  2 11  1  0  0  0  0
  2  4  1  0  0  0  0
  6 10  1  0  0  0  0
  7  8  2  0  0  0  0
  7 12  1  0  0  0  0
  8  9  1  0  0  0  0
  9 10  2  0  0  0  0
 10 11  1  0  0  0  0
 11 12  2  0  0  0  0
M  END
>  <CHROM.1>
5.74635064,17.22817083,4.41759059,2.21895588,-0.96931547,-2.03553638

>  <Name>
ligand

>  <RI>
0

>  <Rbt.Current_Directory>
/home/itssahil/PROJECTS/Mol_Feturizer/Test_systems_manuscript/rnas/4lx5

>  <Rbt.Executable>
rbdock ($Id: //depot/dev/client3/rdock/2013.1/src/exe/rbdock.cxx#4 $)

>  <Rbt.Library>
libRbt.so (2013.1, Build901 2013/11/27)

>  <Rbt.Parameter_File>
/export/apps/rDock/src/rDock_2013.1_src/data/scripts/dock_solv.prm

>  <Rbt.Receptor>
prm/blind_docking_60.prm

>  <SCORE>
-14.9977

>  <SCORE.INTER>
-14.9977

>  <SCORE.INTER.CONST>
1

>  <SCORE.INTER.POLAR>
0

>  <SCORE.INTER.ROT>
0

>  <SCORE.INTER.SOLV>
16.2403

>  <SCORE.INTER.VDW>
-19.0119

>  <SCORE.INTER.norm>
-1.24981

>  <SCORE.INTRA>
0

>  <SCORE.INTRA.DIHEDRAL>
0

>  <SCORE.INTRA.DIHEDRAL.0>
0

>  <SCORE.INTRA.POLAR>
0

>  <SCORE.INTRA.POLAR.0>
0

>  <SCORE.INTRA.REPUL>
0

>  <SCORE.INTRA.REPUL.0>
0

>  <SCORE.INTRA.SOLV>
0

>  <SCORE.INTRA.SOLV.lig_0>
-48.1583

>  <SCORE.INTRA.VDW>
0

>  <SCORE.INTRA.VDW.0>
0

>  <SCORE.INTRA.norm>
0

>  <SCORE.RESTR>
0

>  <SCORE.RESTR.CAVITY>
0

>  <SCORE.RESTR.norm>
0

>  <SCORE.SYSTEM>
0

>  <SCORE.SYSTEM.CONST>
0

>  <SCORE.SYSTEM.DIHEDRAL>
0

>  <SCORE.SYSTEM.SOLV>
0

>  <SCORE.SYSTEM.norm>
0

>  <SCORE.heavy>
12

>  <SCORE.norm>
-1.24981

>  <RMSD>
3.033

$$$$
ligand
 OpenBabel02271912143D
libRbt.so/2013.1/901 2013/11/27
 12 13  0  0  0  0  0  0  0  0999 V2000
    4.7515   15.4218    3.9178 C   0  0  0  0  0  0  0  0  0  0  0  0
    6.0724   17.0812    2.9500 C   0  0  0  0  0  0  0  0  0  0  0  0
    4.1027   14.2670    3.7978 N   0  0  0  0  0  0  0  0  0  0  0  0
    6.7106   17.6307    1.9109 N   0  0  0  0  0  0  0  0  0  0  0  0
    5.3920   15.9321    2.8433 N   0  0  0  0  0  0  0  0  0  0  0  0
    4.7829   16.0502    5.1140 N   0  0  0  0  0  0  0  0  0  0  0  0
    6.8248   19.6247    5.5253 N   0  0  0  0  0  0  0  0  0  0  0  0
    6.1523   19.0614    6.6207 C   0  0  0  0  0  0  0  0  0  0  0  0
    5.4488   17.8438    6.4686 N   0  0  0  0  0  0  0  0  0  0  0  0
    5.4489   17.2216    5.2700 C   0  0  0  0  0  0  0  0  0  0  0  0
    6.1237   17.7639    4.1715 C   0  0  0  0  0  0  0  0  0  0  0  0
    6.8185   18.9672    4.2791 C   0  0  0  0  0  0  0  0  0  0  0  0
  1  3  1  0  0  0  0
  1  5  1  0  0  0  0
  1  6  2  0  0  0  0
  2  5  2  0  0  0  0
  2 11  1  0  0  0  0
  2  4  1  0  0  0  0
  6 10  1  0  0  0  0
  7  8  2  0  0  0  0
  7 12  1  0  0  0  0
  8  9  1  0  0  0  0
  9 10  2  0  0  0  0
 10 11  1  0  0  0  0
 11 12  2  0  0  0  0
M  END
>  <CHROM.1>
5.70565054,17.21214244,4.39586978,2.22513750,-0.97313811,-2.03522957

>  <Name>
ligand

>  <RI>
0

>  <Rbt.Current_Directory>
/home/itssahil/PROJECTS/Mol_Feturizer/Test_systems_manuscript/rnas/4lx5

>  <Rbt.Executable>
rbdock ($Id: //depot/dev/client3/rdock/2013.1/src/exe/rbdock.cxx#4 $)

>  <Rbt.Library>
libRbt.so (2013.1, Build901 2013/11/27)

>  <Rbt.Parameter_File>
/export/apps/rDock/src/rDock_2013.1_src/data/scripts/dock_solv.prm

>  <Rbt.Receptor>
prm/pocket_docking_4.prm

>  <SCORE>
-15.07

>  <SCORE.INTER>
-15.07

>  <SCORE.INTER.CONST>
1

>  <SCORE.INTER.POLAR>
0

>  <SCORE.INTER.ROT>
0

>  <SCORE.INTER.SOLV>
16.053

>  <SCORE.INTER.VDW>
-18.9977

>  <SCORE.INTER.norm>
-1.25584

>  <SCORE.INTRA>
0

>  <SCORE.INTRA.DIHEDRAL>
0

>  <SCORE.INTRA.DIHEDRAL.0>
0

>  <SCORE.INTRA.POLAR>
0

>  <SCORE.INTRA.POLAR.0>
0

>  <SCORE.INTRA.REPUL>
0

>  <SCORE.INTRA.REPUL.0>
0

>  <SCORE.INTRA.SOLV>
0

>  <SCORE.INTRA.SOLV.lig_0>
-48.1583

>  <SCORE.INTRA.VDW>
0

>  <SCORE.INTRA.VDW.0>
0

>  <SCORE.INTRA.norm>
0

>  <SCORE.RESTR>
0

>  <SCORE.RESTR.CAVITY>
0

>  <SCORE.RESTR.norm>
0

>  <SCORE.SYSTEM>
0

>  <SCORE.SYSTEM.CONST>
0

>  <SCORE.SYSTEM.DIHEDRAL>
0

>  <SCORE.SYSTEM.SOLV>
0

>  <SCORE.SYSTEM.norm>
0

>  <SCORE.heavy>
12

>  <SCORE.norm>
-1.25584

>  <RMSD>
3.033

$$$$
ligand
 OpenBabel02271912143D
libRbt.so/2013.1/901 2013/11/27
 12 13  0  0  0  0  0  0  0  0999 V2000
    4.7479   15.4299    3.9148 C   0  0  0  0  0  0  0  0  0  0  0  0
    6.0760   17.0863    2.9520 C   0  0  0  0  0  0  0  0  0  0  0  0
    4.0959   14.2772    3.7920 N   0  0  0  0  0  0  0  0  0  0  0  0
    6.7185   17.6351    1.9151 N   0  0  0  0  0  0  0  0  0  0  0  0
    5.3925   15.9394    2.8424 N   0  0  0  0  0  0  0  0  0  0  0  0
    4.7782   16.0570    5.1117 N   0  0  0  0  0  0  0  0  0  0  0  0
    6.8297   19.6248    5.5318 N   0  0  0  0  0  0  0  0  0  0  0  0
    6.1529   19.0624    6.6251 C   0  0  0  0  0  0  0  0  0  0  0  0
    5.4461   17.8471    6.4699 N   0  0  0  0  0  0  0  0  0  0  0  0
    5.4473   17.2261    5.2706 C   0  0  0  0  0  0  0  0  0  0  0  0
    6.1264   17.7676    4.1744 C   0  0  0  0  0  0  0  0  0  0  0  0
    6.8246   18.9687    4.2850 C   0  0  0  0  0  0  0  0  0  0  0  0
  1  3  1  0  0  0  0
  1  5  1  0  0  0  0
  1  6  2  0  0  0  0
  2  5  2  0  0  0  0
  2 11  1  0  0  0  0
  2  4  1  0  0  0  0
  6 10  1  0  0  0  0
  7  8  2  0  0  0  0
  7 12  1  0  0  0  0
  8  9  1  0  0  0  0
  9 10  2  0  0  0  0
 10 11  1  0  0  0  0
 11 12  2  0  0  0  0
M  END
>  <CHROM.1>
5.70614948,17.21686539,4.39709878,2.22362922,-0.96937817,-2.03539904

>  <Name>
ligand

>  <RI>
0

>  <Rbt.Current_Directory>
/home/itssahil/PROJECTS/Mol_Feturizer/Test_systems_manuscript/rnas/4lx5

>  <Rbt.Executable>
rbdock ($Id: //depot/dev/client3/rdock/2013.1/src/exe/rbdock.cxx#4 $)

>  <Rbt.Library>
libRbt.so (2013.1, Build901 2013/11/27)

>  <Rbt.Parameter_File>
/export/apps/rDock/src/rDock_2013.1_src/data/scripts/dock_solv.prm

>  <Rbt.Receptor>
prm/pocket_docking_4.prm

>  <SCORE>
-15.0679

>  <SCORE.INTER>
-15.0679

>  <SCORE.INTER.CONST>
1

>  <SCORE.INTER.POLAR>
0

>  <SCORE.INTER.ROT>
0

>  <SCORE.INTER.SOLV>
16.0165

>  <SCORE.INTER.VDW>
-18.9841

>  <SCORE.INTER.norm>
-1.25566

>  <SCORE.INTRA>
0

>  <SCORE.INTRA.DIHEDRAL>
0

>  <SCORE.INTRA.DIHEDRAL.0>
0

>  <SCORE.INTRA.POLAR>
0

>  <SCORE.INTRA.POLAR.0>
0

>  <SCORE.INTRA.REPUL>
0

>  <SCORE.INTRA.REPUL.0>
0

>  <SCORE.INTRA.SOLV>
0

>  <SCORE.INTRA.SOLV.lig_0>
-48.1583

>  <SCORE.INTRA.VDW>
0

>  <SCORE.INTRA.VDW.0>
0

>  <SCORE.INTRA.norm>
0

>  <SCORE.RESTR>
0

>  <SCORE.RESTR.CAVITY>
0

>  <SCORE.RESTR.norm>
0

>  <SCORE.SYSTEM>
0

>  <SCORE.SYSTEM.CONST>
0

>  <SCORE.SYSTEM.DIHEDRAL>
0

>  <SCORE.SYSTEM.SOLV>
0

>  <SCORE.SYSTEM.norm>
0

>  <SCORE.heavy>
12

>  <SCORE.norm>
-1.25566

>  <RMSD>
3.033

$$$$
ligand
 OpenBabel02271912143D
libRbt.so/2013.1/901 2013/11/27
 12 13  0  0  0  0  0  0  0  0999 V2000
    4.7502   15.4241    3.9241 C   0  0  0  0  0  0  0  0  0  0  0  0
    6.0687   17.0807    2.9484 C   0  0  0  0  0  0  0  0  0  0  0  0
    4.0991   14.2702    3.8083 N   0  0  0  0  0  0  0  0  0  0  0  0
    6.7026   17.6284    1.9057 N   0  0  0  0  0  0  0  0  0  0  0  0
    5.3861   15.9326    2.8460 N   0  0  0  0  0  0  0  0  0  0  0  0
    4.7886   16.0534    5.1196 N   0  0  0  0  0  0  0  0  0  0  0  0
    6.8380   19.6250    5.5179 N   0  0  0  0  0  0  0  0  0  0  0  0
    6.1701   19.0637    6.6171 C   0  0  0  0  0  0  0  0  0  0  0  0
    5.4639   17.8470    6.4695 N   0  0  0  0  0  0  0  0  0  0  0  0
    5.4572   17.2239    5.2713 C   0  0  0  0  0  0  0  0  0  0  0  0
    6.1273   17.7643    4.1691 C   0  0  0  0  0  0  0  0  0  0  0  0
    6.8245   18.9666    4.2723 C   0  0  0  0  0  0  0  0  0  0  0  0
  1  3  1  0  0  0  0
  1  5  1  0  0  0  0
  1  6  2  0  0  0  0
  2  5  2  0  0  0  0
  2 11  1  0  0  0  0
  2  4  1  0  0  0  0
  6 10  1  0  0  0  0
  7  8  2  0  0  0  0
  7 12  1  0  0  0  0
  8  9  1  0  0  0  0
  9 10  2  0  0  0  0
 10 11  1  0  0  0  0
 11 12  2  0  0  0  0
M  END
>  <CHROM.1>
5.70946495,17.21336245,4.39596792,2.23432301,-0.97399136,-2.02841686

>  <Name>
ligand

>  <RI>
0

>  <Rbt.Current_Directory>
/home/itssahil/PROJECTS/Mol_Feturizer/Test_systems_manuscript/rnas/4lx5

>  <Rbt.Executable>
rbdock ($Id: //depot/dev/client3/rdock/2013.1/src/exe/rbdock.cxx#4 $)

>  <Rbt.Library>
libRbt.so (2013.1, Build901 2013/11/27)

>  <Rbt.Parameter_File>
/export/apps/rDock/src/rDock_2013.1_src/data/scripts/dock_solv.prm

>  <Rbt.Receptor>
prm/pocket_docking_3.prm

>  <SCORE>
-15.031

>  <SCORE.INTER>
-15.031

>  <SCORE.INTER.CONST>
1

>  <SCORE.INTER.POLAR>
0

>  <SCORE.INTER.ROT>
0

>  <SCORE.INTER.SOLV>
16.039

>  <SCORE.INTER.VDW>
-18.967

>  <SCORE.INTER.norm>
-1.25259

>  <SCORE.INTRA>
0

>  <SCORE.INTRA.DIHEDRAL>
0

>  <SCORE.INTRA.DIHEDRAL.0>
0

>  <SCORE.INTRA.POLAR>
0

>  <SCORE.INTRA.POLAR.0>
0

>  <SCORE.INTRA.REPUL>
0

>  <SCORE.INTRA.REPUL.0>
0

>  <SCORE.INTRA.SOLV>
0

>  <SCORE.INTRA.SOLV.lig_0>
-48.1583

>  <SCORE.INTRA.VDW>
0

>  <SCORE.INTRA.VDW.0>
0

>  <SCORE.INTRA.norm>
0

>  <SCORE.RESTR>
0

>  <SCORE.RESTR.CAVITY>
0

>  <SCORE.RESTR.norm>
0

>  <SCORE.SYSTEM>
0

>  <SCORE.SYSTEM.CONST>
0

>  <SCORE.SYSTEM.DIHEDRAL>
0

>  <SCORE.SYSTEM.SOLV>
0

>  <SCORE.SYSTEM.norm>
0

>  <SCORE.heavy>
12

>  <SCORE.norm>
-1.25259

>  <RMSD>
3.034

$$$$
ligand
 OpenBabel02271912143D
libRbt.so/2013.1/901 2013/11/27
 12 13  0  0  0  0  0  0  0  0999 V2000
    4.7744   15.4695    3.9312 C   0  0  0  0  0  0  0  0  0  0  0  0
    6.1212   17.1103    2.9675 C   0  0  0  0  0  0  0  0  0  0  0  0
    4.1168   14.3196    3.8116 N   0  0  0  0  0  0  0  0  0  0  0  0
    6.7765   17.6468    1.9323 N   0  0  0  0  0  0  0  0  0  0  0  0
    5.4320   15.9665    2.8608 N   0  0  0  0  0  0  0  0  0  0  0  0
    4.7972   16.1061    5.1232 N   0  0  0  0  0  0  0  0  0  0  0  0
    6.8657   19.6653    5.5337 N   0  0  0  0  0  0  0  0  0  0  0  0
    6.1754   19.1158    6.6250 C   0  0  0  0  0  0  0  0  0  0  0  0
    5.4629   17.9033    6.4731 N   0  0  0  0  0  0  0  0  0  0  0  0
    5.4717   17.2726    5.2789 C   0  0  0  0  0  0  0  0  0  0  0  0
    6.1642   17.8012    4.1847 C   0  0  0  0  0  0  0  0  0  0  0  0
    6.8683   18.9991    4.2922 C   0  0  0  0  0  0  0  0  0  0  0  0
  1  3  1  0  0  0  0
  1  5  1  0  0  0  0
  1  6  2  0  0  0  0
  2  5  2  0  0  0  0
  2 11  1  0  0  0  0
  2  4  1  0  0  0  0
  6 10  1  0  0  0  0
  7  8  2  0  0  0  0
  7 12  1  0  0  0  0
  8  9  1  0  0  0  0
  9 10  2  0  0  0  0
 10 11  1  0  0  0  0
 11 12  2  0  0  0  0
M  END
>  <CHROM.1>
5.73860564,17.25476542,4.40796157,2.21365708,-0.95990307,-2.05172236

>  <Name>
ligand

>  <RI>
0

>  <Rbt.Current_Directory>
/home/itssahil/PROJECTS/Mol_Feturizer/Test_systems_manuscript/rnas/4lx5

>  <Rbt.Executable>
rbdock ($Id: //depot/dev/client3/rdock/2013.1/src/exe/rbdock.cxx#4 $)

>  <Rbt.Library>
libRbt.so (2013.1, Build901 2013/11/27)

>  <Rbt.Parameter_File>
/export/apps/rDock/src/rDock_2013.1_src/data/scripts/dock_solv.prm

>  <Rbt.Receptor>
prm/pocket_docking_8.prm

>  <SCORE>
-15.0686

>  <SCORE.INTER>
-15.0686

>  <SCORE.INTER.CONST>
1

>  <SCORE.INTER.POLAR>
0

>  <SCORE.INTER.ROT>
0

>  <SCORE.INTER.SOLV>
16.1671

>  <SCORE.INTER.VDW>
-19.0348

>  <SCORE.INTER.norm>
-1.25572

>  <SCORE.INTRA>
0

>  <SCORE.INTRA.DIHEDRAL>
0

>  <SCORE.INTRA.DIHEDRAL.0>
0

>  <SCORE.INTRA.POLAR>
0

>  <SCORE.INTRA.POLAR.0>
0

>  <SCORE.INTRA.REPUL>
0

>  <SCORE.INTRA.REPUL.0>
0

>  <SCORE.INTRA.SOLV>
0

>  <SCORE.INTRA.SOLV.lig_0>
-48.1583

>  <SCORE.INTRA.VDW>
0

>  <SCORE.INTRA.VDW.0>
0

>  <SCORE.INTRA.norm>
0

>  <SCORE.RESTR>
0

>  <SCORE.RESTR.CAVITY>
0

>  <SCORE.RESTR.norm>
0

>  <SCORE.SYSTEM>
0

>  <SCORE.SYSTEM.CONST>
0

>  <SCORE.SYSTEM.DIHEDRAL>
0

>  <SCORE.SYSTEM.SOLV>
0

>  <SCORE.SYSTEM.norm>
0

>  <SCORE.heavy>
12

>  <SCORE.norm>
-1.25572

>  <RMSD>
3.034

$$$$
ligand
 OpenBabel02271912143D
libRbt.so/2013.1/901 2013/11/27
 12 13  0  0  0  0  0  0  0  0999 V2000
    4.7656   15.4348    3.9336 C   0  0  0  0  0  0  0  0  0  0  0  0
    6.0962   17.0807    2.9563 C   0  0  0  0  0  0  0  0  0  0  0  0
    4.1079   14.2845    3.8196 N   0  0  0  0  0  0  0  0  0  0  0  0
    6.7358   17.6217    1.9135 N   0  0  0  0  0  0  0  0  0  0  0  0
    5.4070   15.9364    2.8556 N   0  0  0  0  0  0  0  0  0  0  0  0
    4.8050   16.0673    5.1274 N   0  0  0  0  0  0  0  0  0  0  0  0
    6.8747   19.6277    5.5203 N   0  0  0  0  0  0  0  0  0  0  0  0
    6.2010   19.0735    6.6196 C   0  0  0  0  0  0  0  0  0  0  0  0
    5.4880   17.8606    6.4738 N   0  0  0  0  0  0  0  0  0  0  0  0
    5.4802   17.2341    5.2774 C   0  0  0  0  0  0  0  0  0  0  0  0
    6.1560   17.7674    4.1752 C   0  0  0  0  0  0  0  0  0  0  0  0
    6.8601   18.9659    4.2765 C   0  0  0  0  0  0  0  0  0  0  0  0
  1  3  1  0  0  0  0
  1  5  1  0  0  0  0
  1  6  2  0  0  0  0
  2  5  2  0  0  0  0
  2 11  1  0  0  0  0
  2  4  1  0  0  0  0
  6 10  1  0  0  0  0
  7  8  2  0  0  0  0
  7 12  1  0  0  0  0
  8  9  1  0  0  0  0
  9 10  2  0  0  0  0
 10 11  1  0  0  0  0
 11 12  2  0  0  0  0
M  END
>  <CHROM.1>
5.73444449,17.21963550,4.40262143,2.23535805,-0.96763570,-2.03039750

>  <Name>
ligand

>  <RI>
0

>  <Rbt.Current_Directory>
/home/itssahil/PROJECTS/Mol_Feturizer/Test_systems_manuscript/rnas/4lx5

>  <Rbt.Executable>
rbdock ($Id: //depot/dev/client3/rdock/2013.1/src/exe/rbdock.cxx#4 $)

>  <Rbt.Library>
libRbt.so (2013.1, Build901 2013/11/27)

>  <Rbt.Parameter_File>
/export/apps/rDock/src/rDock_2013.1_src/data/scripts/dock_solv.prm

>  <Rbt.Receptor>
prm/blind_docking_60.prm

>  <SCORE>
-15.0684

>  <SCORE.INTER>
-15.0684

>  <SCORE.INTER.CONST>
1

>  <SCORE.INTER.POLAR>
0

>  <SCORE.INTER.ROT>
0

>  <SCORE.INTER.SOLV>
16.1093

>  <SCORE.INTER.VDW>
-19.0154

>  <SCORE.INTER.norm>
-1.2557

>  <SCORE.INTRA>
0

>  <SCORE.INTRA.DIHEDRAL>
0

>  <SCORE.INTRA.DIHEDRAL.0>
0

>  <SCORE.INTRA.POLAR>
0

>  <SCORE.INTRA.POLAR.0>
0

>  <SCORE.INTRA.REPUL>
0

>  <SCORE.INTRA.REPUL.0>
0

>  <SCORE.INTRA.SOLV>
0

>  <SCORE.INTRA.SOLV.lig_0>
-48.1583

>  <SCORE.INTRA.VDW>
0

>  <SCORE.INTRA.VDW.0>
0

>  <SCORE.INTRA.norm>
0

>  <SCORE.RESTR>
0

>  <SCORE.RESTR.CAVITY>
0

>  <SCORE.RESTR.norm>
0

>  <SCORE.SYSTEM>
0

>  <SCORE.SYSTEM.CONST>
0

>  <SCORE.SYSTEM.DIHEDRAL>
0

>  <SCORE.SYSTEM.SOLV>
0

>  <SCORE.SYSTEM.norm>
0

>  <SCORE.heavy>
12

>  <SCORE.norm>
-1.2557

>  <RMSD>
3.035

$$$$
ligand
 OpenBabel02271912143D
libRbt.so/2013.1/901 2013/11/27
 12 13  0  0  0  0  0  0  0  0999 V2000
    4.7165   15.5380    3.9226 C   0  0  0  0  0  0  0  0  0  0  0  0
    6.1434   17.1169    2.9706 C   0  0  0  0  0  0  0  0  0  0  0  0
    4.0130   14.4161    3.7986 N   0  0  0  0  0  0  0  0  0  0  0  0
    6.8340   17.6210    1.9421 N   0  0  0  0  0  0  0  0  0  0  0  0
    5.4083   16.0024    2.8591 N   0  0  0  0  0  0  0  0  0  0  0  0
    4.7506   16.1782    5.1124 N   0  0  0  0  0  0  0  0  0  0  0  0
    6.9608   19.6494    5.5368 N   0  0  0  0  0  0  0  0  0  0  0  0
    6.2339   19.1339    6.6210 C   0  0  0  0  0  0  0  0  0  0  0  0
    5.4733   17.9517    6.4642 N   0  0  0  0  0  0  0  0  0  0  0  0
    5.4712   17.3161    5.2726 C   0  0  0  0  0  0  0  0  0  0  0  0
    6.1994   17.8106    4.1857 C   0  0  0  0  0  0  0  0  0  0  0  0
    6.9516   18.9784    4.2979 C   0  0  0  0  0  0  0  0  0  0  0  0
  1  3  1  0  0  0  0
  1  5  1  0  0  0  0
  1  6  2  0  0  0  0
  2  5  2  0  0  0  0
  2 11  1  0  0  0  0
  2  4  1  0  0  0  0
  6 10  1  0  0  0  0
  7  8  2  0  0  0  0
  7 12  1  0  0  0  0
  8  9  1  0  0  0  0
  9 10  2  0  0  0  0
 10 11  1  0  0  0  0
 11 12  2  0  0  0  0
M  END
>  <CHROM.1>
5.74844664,17.28334741,4.40532720,2.22655761,-0.91669391,-2.04532248

>  <Name>
ligand

>  <RI>
0

>  <Rbt.Current_Directory>
/home/itssahil/PROJECTS/Mol_Feturizer/Test_systems_manuscript/rnas/4lx5

>  <Rbt.Executable>
rbdock ($Id: //depot/dev/client3/rdock/2013.1/src/exe/rbdock.cxx#4 $)

>  <Rbt.Library>
libRbt.so (2013.1, Build901 2013/11/27)

>  <Rbt.Parameter_File>
/export/apps/rDock/src/rDock_2013.1_src/data/scripts/dock_solv.prm

>  <Rbt.Receptor>
prm/pocket_docking_4.prm

>  <SCORE>
-15.0493

>  <SCORE.INTER>
-15.0493

>  <SCORE.INTER.CONST>
1

>  <SCORE.INTER.POLAR>
0

>  <SCORE.INTER.ROT>
0

>  <SCORE.INTER.SOLV>
15.6611

>  <SCORE.INTER.VDW>
-18.8532

>  <SCORE.INTER.norm>
-1.2541

>  <SCORE.INTRA>
0

>  <SCORE.INTRA.DIHEDRAL>
0

>  <SCORE.INTRA.DIHEDRAL.0>
0

>  <SCORE.INTRA.POLAR>
0

>  <SCORE.INTRA.POLAR.0>
0

>  <SCORE.INTRA.REPUL>
0

>  <SCORE.INTRA.REPUL.0>
0

>  <SCORE.INTRA.SOLV>
0

>  <SCORE.INTRA.SOLV.lig_0>
-48.1583

>  <SCORE.INTRA.VDW>
0

>  <SCORE.INTRA.VDW.0>
0

>  <SCORE.INTRA.norm>
0

>  <SCORE.RESTR>
0

>  <SCORE.RESTR.CAVITY>
0

>  <SCORE.RESTR.norm>
0

>  <SCORE.SYSTEM>
0

>  <SCORE.SYSTEM.CONST>
0

>  <SCORE.SYSTEM.DIHEDRAL>
0

>  <SCORE.SYSTEM.SOLV>
0

>  <SCORE.SYSTEM.norm>
0

>  <SCORE.heavy>
12

>  <SCORE.norm>
-1.2541

>  <RMSD>
3.035

$$$$
ligand
 OpenBabel02271912143D
libRbt.so/2013.1/901 2013/11/27
 12 13  0  0  0  0  0  0  0  0999 V2000
    4.7272   15.4453    3.9217 C   0  0  0  0  0  0  0  0  0  0  0  0
    6.0793   17.0781    2.9517 C   0  0  0  0  0  0  0  0  0  0  0  0
    4.0579   14.3022    3.8036 N   0  0  0  0  0  0  0  0  0  0  0  0
    6.7289   17.6134    1.9122 N   0  0  0  0  0  0  0  0  0  0  0  0
    5.3784   15.9413    2.8468 N   0  0  0  0  0  0  0  0  0  0  0  0
    4.7683   16.0761    5.1163 N   0  0  0  0  0  0  0  0  0  0  0  0
    6.8738   19.6141    5.5217 N   0  0  0  0  0  0  0  0  0  0  0  0
    6.1896   19.0658    6.6176 C   0  0  0  0  0  0  0  0  0  0  0  0
    5.4644   17.8608    6.4674 N   0  0  0  0  0  0  0  0  0  0  0  0
    5.4551   17.2356    5.2703 C   0  0  0  0  0  0  0  0  0  0  0  0
    6.1412   17.7629    4.1716 C   0  0  0  0  0  0  0  0  0  0  0  0
    6.8575   18.9537    4.2772 C   0  0  0  0  0  0  0  0  0  0  0  0
  1  3  1  0  0  0  0
  1  5  1  0  0  0  0
  1  6  2  0  0  0  0
  2  5  2  0  0  0  0
  2 11  1  0  0  0  0
  2  4  1  0  0  0  0
  6 10  1  0  0  0  0
  7  8  2  0  0  0  0
  7 12  1  0  0  0  0
  8  9  1  0  0  0  0
  9 10  2  0  0  0  0
 10 11  1  0  0  0  0
 11 12  2  0  0  0  0
M  END
>  <CHROM.1>
5.71287857,17.21935788,4.39664855,2.23690055,-0.95629220,-2.02807413

>  <Name>
ligand

>  <RI>
0

>  <Rbt.Current_Directory>
/home/itssahil/PROJECTS/Mol_Feturizer/Test_systems_manuscript/rnas/4lx5

>  <Rbt.Executable>
rbdock ($Id: //depot/dev/client3/rdock/2013.1/src/exe/rbdock.cxx#4 $)

>  <Rbt.Library>
libRbt.so (2013.1, Build901 2013/11/27)

>  <Rbt.Parameter_File>
/export/apps/rDock/src/rDock_2013.1_src/data/scripts/dock_solv.prm

>  <Rbt.Receptor>
prm/pocket_docking_5.prm

>  <SCORE>
-15.0272

>  <SCORE.INTER>
-15.0272

>  <SCORE.INTER.CONST>
1

>  <SCORE.INTER.POLAR>
0

>  <SCORE.INTER.ROT>
0

>  <SCORE.INTER.SOLV>
15.8456

>  <SCORE.INTER.VDW>
-18.9

>  <SCORE.INTER.norm>
-1.25226

>  <SCORE.INTRA>
0

>  <SCORE.INTRA.DIHEDRAL>
0

>  <SCORE.INTRA.DIHEDRAL.0>
0

>  <SCORE.INTRA.POLAR>
0

>  <SCORE.INTRA.POLAR.0>
0

>  <SCORE.INTRA.REPUL>
0

>  <SCORE.INTRA.REPUL.0>
0

>  <SCORE.INTRA.SOLV>
0

>  <SCORE.INTRA.SOLV.lig_0>
-48.1583

>  <SCORE.INTRA.VDW>
0

>  <SCORE.INTRA.VDW.0>
0

>  <SCORE.INTRA.norm>
0

>  <SCORE.RESTR>
0

>  <SCORE.RESTR.CAVITY>
0

>  <SCORE.RESTR.norm>
0

>  <SCORE.SYSTEM>
0

>  <SCORE.SYSTEM.CONST>
0

>  <SCORE.SYSTEM.DIHEDRAL>
0

>  <SCORE.SYSTEM.SOLV>
0

>  <SCORE.SYSTEM.norm>
0

>  <SCORE.heavy>
12

>  <SCORE.norm>
-1.25226

>  <RMSD>
3.035

$$$$
ligand
 OpenBabel02271912143D
libRbt.so/2013.1/901 2013/11/27
 12 13  0  0  0  0  0  0  0  0999 V2000
    4.7639   15.3993    3.9369 C   0  0  0  0  0  0  0  0  0  0  0  0
    6.0932   17.0331    2.9375 C   0  0  0  0  0  0  0  0  0  0  0  0
    4.1045   14.2485    3.8374 N   0  0  0  0  0  0  0  0  0  0  0  0
    6.7299   17.5621    1.8869 N   0  0  0  0  0  0  0  0  0  0  0  0
    5.4023   15.8885    2.8514 N   0  0  0  0  0  0  0  0  0  0  0  0
    4.8079   16.0445    5.1236 N   0  0  0  0  0  0  0  0  0  0  0  0
    6.8829   19.6066    5.4714 N   0  0  0  0  0  0  0  0  0  0  0  0
    6.2121   19.0650    6.5788 C   0  0  0  0  0  0  0  0  0  0  0  0
    5.4973   17.8515    6.4484 N   0  0  0  0  0  0  0  0  0  0  0  0
    5.4849   17.2121    5.2589 C   0  0  0  0  0  0  0  0  0  0  0  0
    6.1577   17.7328    4.1488 C   0  0  0  0  0  0  0  0  0  0  0  0
    6.8635   18.9314    4.2349 C   0  0  0  0  0  0  0  0  0  0  0  0
  1  3  1  0  0  0  0
  1  5  1  0  0  0  0
  1  6  2  0  0  0  0
  2  5  2  0  0  0  0
  2 11  1  0  0  0  0
  2  4  1  0  0  0  0
  6 10  1  0  0  0  0
  7  8  2  0  0  0  0
  7 12  1  0  0  0  0
  8  9  1  0  0  0  0
  9 10  2  0  0  0  0
 10 11  1  0  0  0  0
 11 12  2  0  0  0  0
M  END
>  <CHROM.1>
5.73626412,17.18793991,4.38347079,2.24138154,-0.96808599,-2.03620114

>  <Name>
ligand

>  <RI>
0

>  <Rbt.Current_Directory>
/home/itssahil/PROJECTS/Mol_Feturizer/Test_systems_manuscript/rnas/4lx5

>  <Rbt.Executable>
rbdock ($Id: //depot/dev/client3/rdock/2013.1/src/exe/rbdock.cxx#4 $)

>  <Rbt.Library>
libRbt.so (2013.1, Build901 2013/11/27)

>  <Rbt.Parameter_File>
/export/apps/rDock/src/rDock_2013.1_src/data/scripts/dock_solv.prm

>  <Rbt.Receptor>
prm/pocket_docking_5.prm

>  <SCORE>
-15.0038

>  <SCORE.INTER>
-15.0038

>  <SCORE.INTER.CONST>
1

>  <SCORE.INTER.POLAR>
0

>  <SCORE.INTER.ROT>
0

>  <SCORE.INTER.SOLV>
16.1412

>  <SCORE.INTER.VDW>
-18.9829

>  <SCORE.INTER.norm>
-1.25032

>  <SCORE.INTRA>
0

>  <SCORE.INTRA.DIHEDRAL>
0

>  <SCORE.INTRA.DIHEDRAL.0>
0

>  <SCORE.INTRA.POLAR>
0

>  <SCORE.INTRA.POLAR.0>
0

>  <SCORE.INTRA.REPUL>
0

>  <SCORE.INTRA.REPUL.0>
0

>  <SCORE.INTRA.SOLV>
0

>  <SCORE.INTRA.SOLV.lig_0>
-48.1583

>  <SCORE.INTRA.VDW>
0

>  <SCORE.INTRA.VDW.0>
0

>  <SCORE.INTRA.norm>
0

>  <SCORE.RESTR>
0

>  <SCORE.RESTR.CAVITY>
0

>  <SCORE.RESTR.norm>
0

>  <SCORE.SYSTEM>
0

>  <SCORE.SYSTEM.CONST>
0

>  <SCORE.SYSTEM.DIHEDRAL>
0

>  <SCORE.SYSTEM.SOLV>
0

>  <SCORE.SYSTEM.norm>
0

>  <SCORE.heavy>
12

>  <SCORE.norm>
-1.25032

>  <RMSD>
3.035

$$$$
ligand
 OpenBabel02271912143D
libRbt.so/2013.1/901 2013/11/27
 12 13  0  0  0  0  0  0  0  0999 V2000
    4.7456   15.4382    3.9278 C   0  0  0  0  0  0  0  0  0  0  0  0
    6.0853   17.0789    2.9540 C   0  0  0  0  0  0  0  0  0  0  0  0
    4.0833   14.2907    3.8118 N   0  0  0  0  0  0  0  0  0  0  0  0
    6.7295   17.6176    1.9128 N   0  0  0  0  0  0  0  0  0  0  0  0
    5.3915   15.9375    2.8513 N   0  0  0  0  0  0  0  0  0  0  0  0
    4.7850   16.0701    5.1219 N   0  0  0  0  0  0  0  0  0  0  0  0
    6.8688   19.6217    5.5207 N   0  0  0  0  0  0  0  0  0  0  0  0
    6.1904   19.0698    6.6183 C   0  0  0  0  0  0  0  0  0  0  0  0
    5.4725   17.8601    6.4704 N   0  0  0  0  0  0  0  0  0  0  0  0
    5.4648   17.2341    5.2738 C   0  0  0  0  0  0  0  0  0  0  0  0
    6.1453   17.7649    4.1733 C   0  0  0  0  0  0  0  0  0  0  0  0
    6.8542   18.9603    4.2766 C   0  0  0  0  0  0  0  0  0  0  0  0
  1  3  1  0  0  0  0
  1  5  1  0  0  0  0
  1  6  2  0  0  0  0
  2  5  2  0  0  0  0
  2 11  1  0  0  0  0
  2  4  1  0  0  0  0
  6 10  1  0  0  0  0
  7  8  2  0  0  0  0
  7 12  1  0  0  0  0
  8  9  1  0  0  0  0
  9 10  2  0  0  0  0
 10 11  1  0  0  0  0
 11 12  2  0  0  0  0
M  END
>  <CHROM.1>
5.72091454,17.21881087,4.39956550,2.23512716,-0.96287385,-2.03022152

>  <Name>
ligand

>  <RI>
0

>  <Rbt.Current_Directory>
/home/itssahil/PROJECTS/Mol_Feturizer/Test_systems_manuscript/rnas/4lx5

>  <Rbt.Executable>
rbdock ($Id: //depot/dev/client3/rdock/2013.1/src/exe/rbdock.cxx#4 $)

>  <Rbt.Library>
libRbt.so (2013.1, Build901 2013/11/27)

>  <Rbt.Parameter_File>
/export/apps/rDock/src/rDock_2013.1_src/data/scripts/dock_solv.prm

>  <Rbt.Receptor>
prm/pocket_docking_5.prm

>  <SCORE>
-15.0147

>  <SCORE.INTER>
-15.0147

>  <SCORE.INTER.CONST>
1

>  <SCORE.INTER.POLAR>
0

>  <SCORE.INTER.ROT>
0

>  <SCORE.INTER.SOLV>
15.9789

>  <SCORE.INTER.VDW>
-18.9361

>  <SCORE.INTER.norm>
-1.25123

>  <SCORE.INTRA>
0

>  <SCORE.INTRA.DIHEDRAL>
0

>  <SCORE.INTRA.DIHEDRAL.0>
0

>  <SCORE.INTRA.POLAR>
0

>  <SCORE.INTRA.POLAR.0>
0

>  <SCORE.INTRA.REPUL>
0

>  <SCORE.INTRA.REPUL.0>
0

>  <SCORE.INTRA.SOLV>
0

>  <SCORE.INTRA.SOLV.lig_0>
-48.1583

>  <SCORE.INTRA.VDW>
0

>  <SCORE.INTRA.VDW.0>
0

>  <SCORE.INTRA.norm>
0

>  <SCORE.RESTR>
0

>  <SCORE.RESTR.CAVITY>
0

>  <SCORE.RESTR.norm>
0

>  <SCORE.SYSTEM>
0

>  <SCORE.SYSTEM.CONST>
0

>  <SCORE.SYSTEM.DIHEDRAL>
0

>  <SCORE.SYSTEM.SOLV>
0

>  <SCORE.SYSTEM.norm>
0

>  <SCORE.heavy>
12

>  <SCORE.norm>
-1.25123

>  <RMSD>
3.035

$$$$
ligand
 OpenBabel02271912143D
libRbt.so/2013.1/901 2013/11/27
 12 13  0  0  0  0  0  0  0  0999 V2000
    4.7831   15.4589    3.9404 C   0  0  0  0  0  0  0  0  0  0  0  0
    6.1097   17.1091    2.9648 C   0  0  0  0  0  0  0  0  0  0  0  0
    4.1328   14.3043    3.8268 N   0  0  0  0  0  0  0  0  0  0  0  0
    6.7522   17.6500    1.9238 N   0  0  0  0  0  0  0  0  0  0  0  0
    5.4278   15.9603    2.8643 N   0  0  0  0  0  0  0  0  0  0  0  0
    4.8117   16.0960    5.1320 N   0  0  0  0  0  0  0  0  0  0  0  0
    6.8580   19.6701    5.5238 N   0  0  0  0  0  0  0  0  0  0  0  0
    6.1811   19.1159    6.6212 C   0  0  0  0  0  0  0  0  0  0  0  0
    5.4761   17.8984    6.4757 N   0  0  0  0  0  0  0  0  0  0  0  0
    5.4791   17.2674    5.2816 C   0  0  0  0  0  0  0  0  0  0  0  0
    6.1583   17.8006    4.1814 C   0  0  0  0  0  0  0  0  0  0  0  0
    6.8547   19.0036    4.2825 C   0  0  0  0  0  0  0  0  0  0  0  0
  1  3  1  0  0  0  0
  1  5  1  0  0  0  0
  1  6  2  0  0  0  0
  2  5  2  0  0  0  0
  2 11  1  0  0  0  0
  2  4  1  0  0  0  0
  6 10  1  0  0  0  0
  7  8  2  0  0  0  0
  7 12  1  0  0  0  0
  8  9  1  0  0  0  0
  9 10  2  0  0  0  0
 10 11  1  0  0  0  0
 11 12  2  0  0  0  0
M  END
>  <CHROM.1>
5.73857599,17.25119214,4.40844209,2.22133787,-0.97025828,-2.04567429

>  <Name>
ligand

>  <RI>
0

>  <Rbt.Current_Directory>
/home/itssahil/PROJECTS/Mol_Feturizer/Test_systems_manuscript/rnas/4lx5

>  <Rbt.Executable>
rbdock ($Id: //depot/dev/client3/rdock/2013.1/src/exe/rbdock.cxx#4 $)

>  <Rbt.Library>
libRbt.so (2013.1, Build901 2013/11/27)

>  <Rbt.Parameter_File>
/export/apps/rDock/src/rDock_2013.1_src/data/scripts/dock_solv.prm

>  <Rbt.Receptor>
prm/pocket_docking_8.prm

>  <SCORE>
-15.0722

>  <SCORE.INTER>
-15.0722

>  <SCORE.INTER.CONST>
1

>  <SCORE.INTER.POLAR>
0

>  <SCORE.INTER.ROT>
0

>  <SCORE.INTER.SOLV>
16.2422

>  <SCORE.INTER.VDW>
-19.0622

>  <SCORE.INTER.norm>
-1.25602

>  <SCORE.INTRA>
0

>  <SCORE.INTRA.DIHEDRAL>
0

>  <SCORE.INTRA.DIHEDRAL.0>
0

>  <SCORE.INTRA.POLAR>
0

>  <SCORE.INTRA.POLAR.0>
0

>  <SCORE.INTRA.REPUL>
0

>  <SCORE.INTRA.REPUL.0>
0

>  <SCORE.INTRA.SOLV>
0

>  <SCORE.INTRA.SOLV.lig_0>
-48.1583

>  <SCORE.INTRA.VDW>
0

>  <SCORE.INTRA.VDW.0>
0

>  <SCORE.INTRA.norm>
0

>  <SCORE.RESTR>
0

>  <SCORE.RESTR.CAVITY>
0

>  <SCORE.RESTR.norm>
0

>  <SCORE.SYSTEM>
0

>  <SCORE.SYSTEM.CONST>
0

>  <SCORE.SYSTEM.DIHEDRAL>
0

>  <SCORE.SYSTEM.SOLV>
0

>  <SCORE.SYSTEM.norm>
0

>  <SCORE.heavy>
12

>  <SCORE.norm>
-1.25602

>  <RMSD>
3.035

$$$$
ligand
 OpenBabel02271912143D
libRbt.so/2013.1/901 2013/11/27
 12 13  0  0  0  0  0  0  0  0999 V2000
    4.7663   15.4749    3.9358 C   0  0  0  0  0  0  0  0  0  0  0  0
    6.1307   17.1030    2.9753 C   0  0  0  0  0  0  0  0  0  0  0  0
    4.0999   14.3302    3.8152 N   0  0  0  0  0  0  0  0  0  0  0  0
    6.7949   17.6324    1.9420 N   0  0  0  0  0  0  0  0  0  0  0  0
    5.4326   15.9647    2.8674 N   0  0  0  0  0  0  0  0  0  0  0  0
    4.7892   16.1133    5.1268 N   0  0  0  0  0  0  0  0  0  0  0  0
    6.8848   19.6562    5.5404 N   0  0  0  0  0  0  0  0  0  0  0  0
    6.1853   19.1141    6.6296 C   0  0  0  0  0  0  0  0  0  0  0  0
    5.4636   17.9073    6.4766 N   0  0  0  0  0  0  0  0  0  0  0  0
    5.4725   17.2745    5.2835 C   0  0  0  0  0  0  0  0  0  0  0  0
    6.1740   17.7956    4.1915 C   0  0  0  0  0  0  0  0  0  0  0  0
    6.8874   18.9879    4.3000 C   0  0  0  0  0  0  0  0  0  0  0  0
  1  3  1  0  0  0  0
  1  5  1  0  0  0  0
  1  6  2  0  0  0  0
  2  5  2  0  0  0  0
  2 11  1  0  0  0  0
  2  4  1  0  0  0  0
  6 10  1  0  0  0  0
  7  8  2  0  0  0  0
  7 12  1  0  0  0  0
  8  9  1  0  0  0  0
  9 10  2  0  0  0  0
 10 11  1  0  0  0  0
 11 12  2  0  0  0  0
M  END
>  <CHROM.1>
5.74302325,17.25299324,4.41378328,2.21348752,-0.95063687,-2.05354431

>  <Name>
ligand

>  <RI>
0

>  <Rbt.Current_Directory>
/home/itssahil/PROJECTS/Mol_Feturizer/Test_systems_manuscript/rnas/4lx5

>  <Rbt.Executable>
rbdock ($Id: //depot/dev/client3/rdock/2013.1/src/exe/rbdock.cxx#4 $)

>  <Rbt.Library>
libRbt.so (2013.1, Build901 2013/11/27)

>  <Rbt.Parameter_File>
/export/apps/rDock/src/rDock_2013.1_src/data/scripts/dock_solv.prm

>  <Rbt.Receptor>
prm/blind_docking_80.prm

>  <SCORE>
-15.025

>  <SCORE.INTER>
-15.025

>  <SCORE.INTER.CONST>
1

>  <SCORE.INTER.POLAR>
0

>  <SCORE.INTER.ROT>
0

>  <SCORE.INTER.SOLV>
16.0944

>  <SCORE.INTER.VDW>
-18.9815

>  <SCORE.INTER.norm>
-1.25208

>  <SCORE.INTRA>
0

>  <SCORE.INTRA.DIHEDRAL>
0

>  <SCORE.INTRA.DIHEDRAL.0>
0

>  <SCORE.INTRA.POLAR>
0

>  <SCORE.INTRA.POLAR.0>
0

>  <SCORE.INTRA.REPUL>
0

>  <SCORE.INTRA.REPUL.0>
0

>  <SCORE.INTRA.SOLV>
0

>  <SCORE.INTRA.SOLV.lig_0>
-48.1583

>  <SCORE.INTRA.VDW>
0

>  <SCORE.INTRA.VDW.0>
0

>  <SCORE.INTRA.norm>
0

>  <SCORE.RESTR>
0

>  <SCORE.RESTR.CAVITY>
0

>  <SCORE.RESTR.norm>
0

>  <SCORE.SYSTEM>
0

>  <SCORE.SYSTEM.CONST>
0

>  <SCORE.SYSTEM.DIHEDRAL>
0

>  <SCORE.SYSTEM.SOLV>
0

>  <SCORE.SYSTEM.norm>
0

>  <SCORE.heavy>
12

>  <SCORE.norm>
-1.25208

>  <RMSD>
3.036

$$$$
ligand
 OpenBabel02271912143D
libRbt.so/2013.1/901 2013/11/27
 12 13  0  0  0  0  0  0  0  0999 V2000
    4.7173   15.5124    3.9182 C   0  0  0  0  0  0  0  0  0  0  0  0
    6.1261   17.1123    2.9747 C   0  0  0  0  0  0  0  0  0  0  0  0
    4.0269   14.3830    3.7885 N   0  0  0  0  0  0  0  0  0  0  0  0
    6.8114   17.6294    1.9490 N   0  0  0  0  0  0  0  0  0  0  0  0
    5.4041   15.9900    2.8574 N   0  0  0  0  0  0  0  0  0  0  0  0
    4.7433   16.1472    5.1111 N   0  0  0  0  0  0  0  0  0  0  0  0
    6.9129   19.6417    5.5535 N   0  0  0  0  0  0  0  0  0  0  0  0
    6.1915   19.1126    6.6348 C   0  0  0  0  0  0  0  0  0  0  0  0
    5.4448   17.9224    6.4719 N   0  0  0  0  0  0  0  0  0  0  0  0
    5.4506   17.2926    5.2772 C   0  0  0  0  0  0  0  0  0  0  0  0
    6.1736   17.8007    4.1931 C   0  0  0  0  0  0  0  0  0  0  0  0
    6.9121   18.9767    4.3114 C   0  0  0  0  0  0  0  0  0  0  0  0
  1  3  1  0  0  0  0
  1  5  1  0  0  0  0
  1  6  2  0  0  0  0
  2  5  2  0  0  0  0
  2 11  1  0  0  0  0
  2  4  1  0  0  0  0
  6 10  1  0  0  0  0
  7  8  2  0  0  0  0
  7 12  1  0  0  0  0
  8  9  1  0  0  0  0
  9 10  2  0  0  0  0
 10 11  1  0  0  0  0
 11 12  2  0  0  0  0
M  END
>  <CHROM.1>
5.72863384,17.26725134,4.40997950,2.21702221,-0.92677166,-2.04808681

>  <Name>
ligand

>  <RI>
0

>  <Rbt.Current_Directory>
/home/itssahil/PROJECTS/Mol_Feturizer/Test_systems_manuscript/rnas/4lx5

>  <Rbt.Executable>
rbdock ($Id: //depot/dev/client3/rdock/2013.1/src/exe/rbdock.cxx#4 $)

>  <Rbt.Library>
libRbt.so (2013.1, Build901 2013/11/27)

>  <Rbt.Parameter_File>
/export/apps/rDock/src/rDock_2013.1_src/data/scripts/dock_solv.prm

>  <Rbt.Receptor>
prm/pocket_docking_5.prm

>  <SCORE>
-15.0495

>  <SCORE.INTER>
-15.0541

>  <SCORE.INTER.CONST>
1

>  <SCORE.INTER.POLAR>
0

>  <SCORE.INTER.ROT>
0

>  <SCORE.INTER.SOLV>
15.7072

>  <SCORE.INTER.VDW>
-18.8718

>  <SCORE.INTER.norm>
-1.25451

>  <SCORE.INTRA>
0

>  <SCORE.INTRA.DIHEDRAL>
0

>  <SCORE.INTRA.DIHEDRAL.0>
0

>  <SCORE.INTRA.POLAR>
0

>  <SCORE.INTRA.POLAR.0>
0

>  <SCORE.INTRA.REPUL>
0

>  <SCORE.INTRA.REPUL.0>
0

>  <SCORE.INTRA.SOLV>
0

>  <SCORE.INTRA.SOLV.lig_0>
-48.1583

>  <SCORE.INTRA.VDW>
0

>  <SCORE.INTRA.VDW.0>
0

>  <SCORE.INTRA.norm>
0

>  <SCORE.RESTR>
0.00452721

>  <SCORE.RESTR.CAVITY>
0.00452721

>  <SCORE.RESTR.norm>
0.000377268

>  <SCORE.SYSTEM>
0

>  <SCORE.SYSTEM.CONST>
0

>  <SCORE.SYSTEM.DIHEDRAL>
0

>  <SCORE.SYSTEM.SOLV>
0

>  <SCORE.SYSTEM.norm>
0

>  <SCORE.heavy>
12

>  <SCORE.norm>
-1.25413

>  <RMSD>
3.036

$$$$
ligand
 OpenBabel02271912143D
libRbt.so/2013.1/901 2013/11/27
 12 13  0  0  0  0  0  0  0  0999 V2000
    4.7296   15.4405    3.9274 C   0  0  0  0  0  0  0  0  0  0  0  0
    6.0692   17.0762    2.9450 C   0  0  0  0  0  0  0  0  0  0  0  0
    4.0647   14.2940    3.8166 N   0  0  0  0  0  0  0  0  0  0  0  0
    6.7109   17.6109    1.9004 N   0  0  0  0  0  0  0  0  0  0  0  0
    5.3728   15.9359    2.8476 N   0  0  0  0  0  0  0  0  0  0  0  0
    4.7742   16.0754    5.1198 N   0  0  0  0  0  0  0  0  0  0  0  0
    6.8660   19.6240    5.5025 N   0  0  0  0  0  0  0  0  0  0  0  0
    6.1901   19.0763    6.6038 C   0  0  0  0  0  0  0  0  0  0  0  0
    5.4695   17.8675    6.4614 N   0  0  0  0  0  0  0  0  0  0  0  0
    5.4566   17.2384    5.2664 C   0  0  0  0  0  0  0  0  0  0  0  0
    6.1345   17.7652    4.1623 C   0  0  0  0  0  0  0  0  0  0  0  0
    6.8460   18.9595    4.2603 C   0  0  0  0  0  0  0  0  0  0  0  0
  1  3  1  0  0  0  0
  1  5  1  0  0  0  0
  1  6  2  0  0  0  0
  2  5  2  0  0  0  0
  2 11  1  0  0  0  0
  2  4  1  0  0  0  0
  6 10  1  0  0  0  0
  7  8  2  0  0  0  0
  7 12  1  0  0  0  0
  8  9  1  0  0  0  0
  9 10  2  0  0  0  0
 10 11  1  0  0  0  0
 11 12  2  0  0  0  0
M  END
>  <CHROM.1>
5.70981191,17.22047549,4.39143212,2.24179655,-0.96264620,-2.02731019

>  <Name>
ligand

>  <RI>
0

>  <Rbt.Current_Directory>
/home/itssahil/PROJECTS/Mol_Feturizer/Test_systems_manuscript/rnas/4lx5

>  <Rbt.Executable>
rbdock ($Id: //depot/dev/client3/rdock/2013.1/src/exe/rbdock.cxx#4 $)

>  <Rbt.Library>
libRbt.so (2013.1, Build901 2013/11/27)

>  <Rbt.Parameter_File>
/export/apps/rDock/src/rDock_2013.1_src/data/scripts/dock_solv.prm

>  <Rbt.Receptor>
prm/pocket_docking_6.prm

>  <SCORE>
-15.0333

>  <SCORE.INTER>
-15.0333

>  <SCORE.INTER.CONST>
1

>  <SCORE.INTER.POLAR>
0

>  <SCORE.INTER.ROT>
0

>  <SCORE.INTER.SOLV>
15.8859

>  <SCORE.INTER.VDW>
-18.9175

>  <SCORE.INTER.norm>
-1.25278

>  <SCORE.INTRA>
0

>  <SCORE.INTRA.DIHEDRAL>
0

>  <SCORE.INTRA.DIHEDRAL.0>
0

>  <SCORE.INTRA.POLAR>
0

>  <SCORE.INTRA.POLAR.0>
0

>  <SCORE.INTRA.REPUL>
0

>  <SCORE.INTRA.REPUL.0>
0

>  <SCORE.INTRA.SOLV>
0

>  <SCORE.INTRA.SOLV.lig_0>
-48.1583

>  <SCORE.INTRA.VDW>
0

>  <SCORE.INTRA.VDW.0>
0

>  <SCORE.INTRA.norm>
0

>  <SCORE.RESTR>
0

>  <SCORE.RESTR.CAVITY>
0

>  <SCORE.RESTR.norm>
0

>  <SCORE.SYSTEM>
0

>  <SCORE.SYSTEM.CONST>
0

>  <SCORE.SYSTEM.DIHEDRAL>
0

>  <SCORE.SYSTEM.SOLV>
0

>  <SCORE.SYSTEM.norm>
0

>  <SCORE.heavy>
12

>  <SCORE.norm>
-1.25278

>  <RMSD>
3.036

$$$$
ligand
 OpenBabel02271912143D
libRbt.so/2013.1/901 2013/11/27
 12 13  0  0  0  0  0  0  0  0999 V2000
    4.7264   15.5283    3.9312 C   0  0  0  0  0  0  0  0  0  0  0  0
    6.1521   17.1097    2.9817 C   0  0  0  0  0  0  0  0  0  0  0  0
    4.0260   14.4046    3.8064 N   0  0  0  0  0  0  0  0  0  0  0  0
    6.8444   17.6145    1.9546 N   0  0  0  0  0  0  0  0  0  0  0  0
    5.4201   15.9934    2.8692 N   0  0  0  0  0  0  0  0  0  0  0  0
    4.7554   16.1699    5.1204 N   0  0  0  0  0  0  0  0  0  0  0  0
    6.9558   19.6471    5.5475 N   0  0  0  0  0  0  0  0  0  0  0  0
    6.2270   19.1309    6.6301 C   0  0  0  0  0  0  0  0  0  0  0  0
    5.4698   17.9467    6.4724 N   0  0  0  0  0  0  0  0  0  0  0  0
    5.4727   17.3098    5.2815 C   0  0  0  0  0  0  0  0  0  0  0  0
    6.2029   17.8049    4.1962 C   0  0  0  0  0  0  0  0  0  0  0  0
    6.9519   18.9747    4.3093 C   0  0  0  0  0  0  0  0  0  0  0  0
  1  3  1  0  0  0  0
  1  5  1  0  0  0  0
  1  6  2  0  0  0  0
  2  5  2  0  0  0  0
  2 11  1  0  0  0  0
  2  4  1  0  0  0  0
  6 10  1  0  0  0  0
  7  8  2  0  0  0  0
  7 12  1  0  0  0  0
  8  9  1  0  0  0  0
  9 10  2  0  0  0  0
 10 11  1  0  0  0  0
 11 12  2  0  0  0  0
M  END
>  <CHROM.1>
5.75257525,17.27678493,4.41506214,2.22044440,-0.91754716,-2.05125005

>  <Name>
ligand

>  <RI>
0

>  <Rbt.Current_Directory>
/home/itssahil/PROJECTS/Mol_Feturizer/Test_systems_manuscript/rnas/4lx5

>  <Rbt.Executable>
rbdock ($Id: //depot/dev/client3/rdock/2013.1/src/exe/rbdock.cxx#4 $)

>  <Rbt.Library>
libRbt.so (2013.1, Build901 2013/11/27)

>  <Rbt.Parameter_File>
/export/apps/rDock/src/rDock_2013.1_src/data/scripts/dock_solv.prm

>  <Rbt.Receptor>
prm/blind_docking_40.prm

>  <SCORE>
-15.0425

>  <SCORE.INTER>
-15.0425

>  <SCORE.INTER.CONST>
1

>  <SCORE.INTER.POLAR>
0

>  <SCORE.INTER.ROT>
0

>  <SCORE.INTER.SOLV>
15.7446

>  <SCORE.INTER.VDW>
-18.8765

>  <SCORE.INTER.norm>
-1.25354

>  <SCORE.INTRA>
0

>  <SCORE.INTRA.DIHEDRAL>
0

>  <SCORE.INTRA.DIHEDRAL.0>
0

>  <SCORE.INTRA.POLAR>
0

>  <SCORE.INTRA.POLAR.0>
0

>  <SCORE.INTRA.REPUL>
0

>  <SCORE.INTRA.REPUL.0>
0

>  <SCORE.INTRA.SOLV>
0

>  <SCORE.INTRA.SOLV.lig_0>
-48.1583

>  <SCORE.INTRA.VDW>
0

>  <SCORE.INTRA.VDW.0>
0

>  <SCORE.INTRA.norm>
0

>  <SCORE.RESTR>
0

>  <SCORE.RESTR.CAVITY>
0

>  <SCORE.RESTR.norm>
0

>  <SCORE.SYSTEM>
0

>  <SCORE.SYSTEM.CONST>
0

>  <SCORE.SYSTEM.DIHEDRAL>
0

>  <SCORE.SYSTEM.SOLV>
0

>  <SCORE.SYSTEM.norm>
0

>  <SCORE.heavy>
12

>  <SCORE.norm>
-1.25354

>  <RMSD>
3.037

$$$$
ligand
 OpenBabel02271912143D
libRbt.so/2013.1/901 2013/11/27
 12 13  0  0  0  0  0  0  0  0999 V2000
    4.7243   15.4400    3.9235 C   0  0  0  0  0  0  0  0  0  0  0  0
    6.0694   17.0783    2.9533 C   0  0  0  0  0  0  0  0  0  0  0  0
    4.0594   14.2942    3.8055 N   0  0  0  0  0  0  0  0  0  0  0  0
    6.7163   17.6165    1.9136 N   0  0  0  0  0  0  0  0  0  0  0  0
    5.3729   15.9388    2.8485 N   0  0  0  0  0  0  0  0  0  0  0  0
    4.7635   16.0706    5.1183 N   0  0  0  0  0  0  0  0  0  0  0  0
    6.8554   19.6167    5.5236 N   0  0  0  0  0  0  0  0  0  0  0  0
    6.1740   19.0654    6.6197 C   0  0  0  0  0  0  0  0  0  0  0  0
    5.4534   17.8576    6.4696 N   0  0  0  0  0  0  0  0  0  0  0  0
    5.4459   17.2327    5.2723 C   0  0  0  0  0  0  0  0  0  0  0  0
    6.1293   17.7630    4.1733 C   0  0  0  0  0  0  0  0  0  0  0  0
    6.8409   18.9566    4.2789 C   0  0  0  0  0  0  0  0  0  0  0  0
  1  3  1  0  0  0  0
  1  5  1  0  0  0  0
  1  6  2  0  0  0  0
  2  5  2  0  0  0  0
  2 11  1  0  0  0  0
  2  4  1  0  0  0  0
  6 10  1  0  0  0  0
  7  8  2  0  0  0  0
  7 12  1  0  0  0  0
  8  9  1  0  0  0  0
  9 10  2  0  0  0  0
 10 11  1  0  0  0  0
 11 12  2  0  0  0  0
M  END
>  <CHROM.1>
5.70322355,17.21771523,4.39847801,2.23475168,-0.96006491,-2.02954356

>  <Name>
ligand

>  <RI>
0

>  <Rbt.Current_Directory>
/home/itssahil/PROJECTS/Mol_Feturizer/Test_systems_manuscript/rnas/4lx5

>  <Rbt.Executable>
rbdock ($Id: //depot/dev/client3/rdock/2013.1/src/exe/rbdock.cxx#4 $)

>  <Rbt.Library>
libRbt.so (2013.1, Build901 2013/11/27)

>  <Rbt.Parameter_File>
/export/apps/rDock/src/rDock_2013.1_src/data/scripts/dock_solv.prm

>  <Rbt.Receptor>
prm/blind_docking_40.prm

>  <SCORE>
-15.0323

>  <SCORE.INTER>
-15.0323

>  <SCORE.INTER.CONST>
1

>  <SCORE.INTER.POLAR>
0

>  <SCORE.INTER.ROT>
0

>  <SCORE.INTER.SOLV>
15.8433

>  <SCORE.INTER.VDW>
-18.9026

>  <SCORE.INTER.norm>
-1.25269

>  <SCORE.INTRA>
0

>  <SCORE.INTRA.DIHEDRAL>
0

>  <SCORE.INTRA.DIHEDRAL.0>
0

>  <SCORE.INTRA.POLAR>
0

>  <SCORE.INTRA.POLAR.0>
0

>  <SCORE.INTRA.REPUL>
0

>  <SCORE.INTRA.REPUL.0>
0

>  <SCORE.INTRA.SOLV>
0

>  <SCORE.INTRA.SOLV.lig_0>
-48.1583

>  <SCORE.INTRA.VDW>
0

>  <SCORE.INTRA.VDW.0>
0

>  <SCORE.INTRA.norm>
0

>  <SCORE.RESTR>
0

>  <SCORE.RESTR.CAVITY>
0

>  <SCORE.RESTR.norm>
0

>  <SCORE.SYSTEM>
0

>  <SCORE.SYSTEM.CONST>
0

>  <SCORE.SYSTEM.DIHEDRAL>
0

>  <SCORE.SYSTEM.SOLV>
0

>  <SCORE.SYSTEM.norm>
0

>  <SCORE.heavy>
12

>  <SCORE.norm>
-1.25269

>  <RMSD>
3.037

$$$$
ligand
 OpenBabel02271912143D
libRbt.so/2013.1/901 2013/11/27
 12 13  0  0  0  0  0  0  0  0999 V2000
    4.7006   15.3829    3.9170 C   0  0  0  0  0  0  0  0  0  0  0  0
    6.0675   16.9891    2.9236 C   0  0  0  0  0  0  0  0  0  0  0  0
    4.0245   14.2420    3.8167 N   0  0  0  0  0  0  0  0  0  0  0  0
    6.7252   17.5011    1.8775 N   0  0  0  0  0  0  0  0  0  0  0  0
    5.3598   15.8549    2.8363 N   0  0  0  0  0  0  0  0  0  0  0  0
    4.7402   16.0353    5.1000 N   0  0  0  0  0  0  0  0  0  0  0  0
    6.8665   19.5667    5.4504 N   0  0  0  0  0  0  0  0  0  0  0  0
    6.1739   19.0430    6.5529 C   0  0  0  0  0  0  0  0  0  0  0  0
    5.4416   17.8399    6.4215 N   0  0  0  0  0  0  0  0  0  0  0  0
    5.4338   17.1930    5.2361 C   0  0  0  0  0  0  0  0  0  0  0  0
    6.1282   17.6957    4.1310 C   0  0  0  0  0  0  0  0  0  0  0  0
    6.8516   18.8837    4.2182 C   0  0  0  0  0  0  0  0  0  0  0  0
  1  3  1  0  0  0  0
  1  5  1  0  0  0  0
  1  6  2  0  0  0  0
  2  5  2  0  0  0  0
  2 11  1  0  0  0  0
  2  4  1  0  0  0  0
  6 10  1  0  0  0  0
  7  8  2  0  0  0  0
  7 12  1  0  0  0  0
  8  9  1  0  0  0  0
  9 10  2  0  0  0  0
 10 11  1  0  0  0  0
 11 12  2  0  0  0  0
M  END
>  <CHROM.1>
5.69540133,17.15909445,4.36401001,2.23475561,-0.94854012,-2.04814699

>  <Name>
ligand

>  <RI>
0

>  <Rbt.Current_Directory>
/home/itssahil/PROJECTS/Mol_Feturizer/Test_systems_manuscript/rnas/4lx5

>  <Rbt.Executable>
rbdock ($Id: //depot/dev/client3/rdock/2013.1/src/exe/rbdock.cxx#4 $)

>  <Rbt.Library>
libRbt.so (2013.1, Build901 2013/11/27)

>  <Rbt.Parameter_File>
/export/apps/rDock/src/rDock_2013.1_src/data/scripts/dock_solv.prm

>  <Rbt.Receptor>
prm/blind_docking_40.prm

>  <SCORE>
-15.0125

>  <SCORE.INTER>
-15.0125

>  <SCORE.INTER.CONST>
1

>  <SCORE.INTER.POLAR>
0

>  <SCORE.INTER.ROT>
0

>  <SCORE.INTER.SOLV>
15.7852

>  <SCORE.INTER.VDW>
-18.8701

>  <SCORE.INTER.norm>
-1.25105

>  <SCORE.INTRA>
0

>  <SCORE.INTRA.DIHEDRAL>
0

>  <SCORE.INTRA.DIHEDRAL.0>
0

>  <SCORE.INTRA.POLAR>
0

>  <SCORE.INTRA.POLAR.0>
0

>  <SCORE.INTRA.REPUL>
0

>  <SCORE.INTRA.REPUL.0>
0

>  <SCORE.INTRA.SOLV>
0

>  <SCORE.INTRA.SOLV.lig_0>
-48.1583

>  <SCORE.INTRA.VDW>
0

>  <SCORE.INTRA.VDW.0>
0

>  <SCORE.INTRA.norm>
0

>  <SCORE.RESTR>
0

>  <SCORE.RESTR.CAVITY>
0

>  <SCORE.RESTR.norm>
0

>  <SCORE.SYSTEM>
0

>  <SCORE.SYSTEM.CONST>
0

>  <SCORE.SYSTEM.DIHEDRAL>
0

>  <SCORE.SYSTEM.SOLV>
0

>  <SCORE.SYSTEM.norm>
0

>  <SCORE.heavy>
12

>  <SCORE.norm>
-1.25105

>  <RMSD>
3.037

$$$$
ligand
 OpenBabel02271912143D
libRbt.so/2013.1/901 2013/11/27
 12 13  0  0  0  0  0  0  0  0999 V2000
    4.7155   15.3889    3.9224 C   0  0  0  0  0  0  0  0  0  0  0  0
    6.0556   17.0183    2.9303 C   0  0  0  0  0  0  0  0  0  0  0  0
    4.0512   14.2414    3.8187 N   0  0  0  0  0  0  0  0  0  0  0  0
    6.6984   17.5461    1.8827 N   0  0  0  0  0  0  0  0  0  0  0  0
    5.3599   15.8770    2.8399 N   0  0  0  0  0  0  0  0  0  0  0  0
    4.7584   16.0320    5.1103 N   0  0  0  0  0  0  0  0  0  0  0  0
    6.8484   19.5840    5.4711 N   0  0  0  0  0  0  0  0  0  0  0  0
    6.1715   19.0436    6.5753 C   0  0  0  0  0  0  0  0  0  0  0  0
    5.4515   17.8336    6.4404 N   0  0  0  0  0  0  0  0  0  0  0  0
    5.4402   17.1963    5.2498 C   0  0  0  0  0  0  0  0  0  0  0  0
    6.1193   17.7157    4.1429 C   0  0  0  0  0  0  0  0  0  0  0  0
    6.8302   18.9110    4.2335 C   0  0  0  0  0  0  0  0  0  0  0  0
  1  3  1  0  0  0  0
  1  5  1  0  0  0  0
  1  6  2  0  0  0  0
  2  5  2  0  0  0  0
  2 11  1  0  0  0  0
  2  4  1  0  0  0  0
  6 10  1  0  0  0  0
  7  8  2  0  0  0  0
  7 12  1  0  0  0  0
  8  9  1  0  0  0  0
  9 10  2  0  0  0  0
 10 11  1  0  0  0  0
 11 12  2  0  0  0  0
M  END
>  <CHROM.1>
5.69449983,17.17241118,4.37524338,2.23962828,-0.96245466,-2.03599022

>  <Name>
ligand

>  <RI>
0

>  <Rbt.Current_Directory>
/home/itssahil/PROJECTS/Mol_Feturizer/Test_systems_manuscript/rnas/4lx5

>  <Rbt.Executable>
rbdock ($Id: //depot/dev/client3/rdock/2013.1/src/exe/rbdock.cxx#4 $)

>  <Rbt.Library>
libRbt.so (2013.1, Build901 2013/11/27)

>  <Rbt.Parameter_File>
/export/apps/rDock/src/rDock_2013.1_src/data/scripts/dock_solv.prm

>  <Rbt.Receptor>
prm/blind_docking_60.prm

>  <SCORE>
-14.9939

>  <SCORE.INTER>
-14.9939

>  <SCORE.INTER.CONST>
1

>  <SCORE.INTER.POLAR>
0

>  <SCORE.INTER.ROT>
0

>  <SCORE.INTER.SOLV>
15.8383

>  <SCORE.INTER.VDW>
-18.8754

>  <SCORE.INTER.norm>
-1.24949

>  <SCORE.INTRA>
0

>  <SCORE.INTRA.DIHEDRAL>
0

>  <SCORE.INTRA.DIHEDRAL.0>
0

>  <SCORE.INTRA.POLAR>
0

>  <SCORE.INTRA.POLAR.0>
0

>  <SCORE.INTRA.REPUL>
0

>  <SCORE.INTRA.REPUL.0>
0

>  <SCORE.INTRA.SOLV>
0

>  <SCORE.INTRA.SOLV.lig_0>
-48.1583

>  <SCORE.INTRA.VDW>
0

>  <SCORE.INTRA.VDW.0>
0

>  <SCORE.INTRA.norm>
0

>  <SCORE.RESTR>
0

>  <SCORE.RESTR.CAVITY>
0

>  <SCORE.RESTR.norm>
0

>  <SCORE.SYSTEM>
0

>  <SCORE.SYSTEM.CONST>
0

>  <SCORE.SYSTEM.DIHEDRAL>
0

>  <SCORE.SYSTEM.SOLV>
0

>  <SCORE.SYSTEM.norm>
0

>  <SCORE.heavy>
12

>  <SCORE.norm>
-1.24949

>  <RMSD>
3.037

$$$$
ligand
 OpenBabel02271912143D
libRbt.so/2013.1/901 2013/11/27
 12 13  0  0  0  0  0  0  0  0999 V2000
    4.7755   15.4565    3.9358 C   0  0  0  0  0  0  0  0  0  0  0  0
    6.1306   17.0957    2.9810 C   0  0  0  0  0  0  0  0  0  0  0  0
    4.1159   14.3084    3.8113 N   0  0  0  0  0  0  0  0  0  0  0  0
    6.7921   17.6323    1.9497 N   0  0  0  0  0  0  0  0  0  0  0  0
    5.4393   15.9537    2.8693 N   0  0  0  0  0  0  0  0  0  0  0  0
    4.7942   16.0912    5.1289 N   0  0  0  0  0  0  0  0  0  0  0  0
    6.8689   19.6450    5.5547 N   0  0  0  0  0  0  0  0  0  0  0  0
    6.1722   19.0953    6.6419 C   0  0  0  0  0  0  0  0  0  0  0  0
    5.4577   17.8848    6.4847 N   0  0  0  0  0  0  0  0  0  0  0  0
    5.4706   17.2559    5.2896 C   0  0  0  0  0  0  0  0  0  0  0  0
    6.1695   17.7846    4.1996 C   0  0  0  0  0  0  0  0  0  0  0  0
    6.8758   18.9807    4.3122 C   0  0  0  0  0  0  0  0  0  0  0  0
  1  3  1  0  0  0  0
  1  5  1  0  0  0  0
  1  6  2  0  0  0  0
  2  5  2  0  0  0  0
  2 11  1  0  0  0  0
  2  4  1  0  0  0  0
  6 10  1  0  0  0  0
  7  8  2  0  0  0  0
  7 12  1  0  0  0  0
  8  9  1  0  0  0  0
  9 10  2  0  0  0  0
 10 11  1  0  0  0  0
 11 12  2  0  0  0  0
M  END
>  <CHROM.1>
5.74160768,17.23880786,4.41990790,2.20827442,-0.95568123,-2.05455589

>  <Name>
ligand

>  <RI>
0

>  <Rbt.Current_Directory>
/home/itssahil/PROJECTS/Mol_Feturizer/Test_systems_manuscript/rnas/4lx5

>  <Rbt.Executable>
rbdock ($Id: //depot/dev/client3/rdock/2013.1/src/exe/rbdock.cxx#4 $)

>  <Rbt.Library>
libRbt.so (2013.1, Build901 2013/11/27)

>  <Rbt.Parameter_File>
/export/apps/rDock/src/rDock_2013.1_src/data/scripts/dock_solv.prm

>  <Rbt.Receptor>
prm/pocket_docking_5.prm

>  <SCORE>
-15.0242

>  <SCORE.INTER>
-15.0242

>  <SCORE.INTER.CONST>
1

>  <SCORE.INTER.POLAR>
0

>  <SCORE.INTER.ROT>
0

>  <SCORE.INTER.SOLV>
16.1616

>  <SCORE.INTER.VDW>
-19.0033

>  <SCORE.INTER.norm>
-1.25202

>  <SCORE.INTRA>
0

>  <SCORE.INTRA.DIHEDRAL>
0

>  <SCORE.INTRA.DIHEDRAL.0>
0

>  <SCORE.INTRA.POLAR>
0

>  <SCORE.INTRA.POLAR.0>
0

>  <SCORE.INTRA.REPUL>
0

>  <SCORE.INTRA.REPUL.0>
0

>  <SCORE.INTRA.SOLV>
0

>  <SCORE.INTRA.SOLV.lig_0>
-48.1583

>  <SCORE.INTRA.VDW>
0

>  <SCORE.INTRA.VDW.0>
0

>  <SCORE.INTRA.norm>
0

>  <SCORE.RESTR>
0

>  <SCORE.RESTR.CAVITY>
0

>  <SCORE.RESTR.norm>
0

>  <SCORE.SYSTEM>
0

>  <SCORE.SYSTEM.CONST>
0

>  <SCORE.SYSTEM.DIHEDRAL>
0

>  <SCORE.SYSTEM.SOLV>
0

>  <SCORE.SYSTEM.norm>
0

>  <SCORE.heavy>
12

>  <SCORE.norm>
-1.25202

>  <RMSD>
3.037

$$$$
ligand
 OpenBabel02271912143D
libRbt.so/2013.1/901 2013/11/27
 12 13  0  0  0  0  0  0  0  0999 V2000
    4.7570   15.4277    3.9388 C   0  0  0  0  0  0  0  0  0  0  0  0
    6.0696   17.0847    2.9558 C   0  0  0  0  0  0  0  0  0  0  0  0
    4.1111   14.2703    3.8283 N   0  0  0  0  0  0  0  0  0  0  0  0
    6.7024   17.6296    1.9111 N   0  0  0  0  0  0  0  0  0  0  0  0
    5.3921   15.9331    2.8588 N   0  0  0  0  0  0  0  0  0  0  0  0
    4.7910   16.0636    5.1309 N   0  0  0  0  0  0  0  0  0  0  0  0
    6.8242   19.6462    5.5126 N   0  0  0  0  0  0  0  0  0  0  0  0
    6.1574   19.0878    6.6140 C   0  0  0  0  0  0  0  0  0  0  0  0
    5.4567   17.8673    6.4720 N   0  0  0  0  0  0  0  0  0  0  0  0
    5.4543   17.2377    5.2772 C   0  0  0  0  0  0  0  0  0  0  0  0
    6.1235   17.7752    4.1729 C   0  0  0  0  0  0  0  0  0  0  0  0
    6.8152   18.9811    4.2706 C   0  0  0  0  0  0  0  0  0  0  0  0
  1  3  1  0  0  0  0
  1  5  1  0  0  0  0
  1  6  2  0  0  0  0
  2  5  2  0  0  0  0
  2 11  1  0  0  0  0
  2  4  1  0  0  0  0
  6 10  1  0  0  0  0
  7  8  2  0  0  0  0
  7 12  1  0  0  0  0
  8  9  1  0  0  0  0
  9 10  2  0  0  0  0
 10 11  1  0  0  0  0
 11 12  2  0  0  0  0
M  END
>  <CHROM.1>
5.70778711,17.22360853,4.40221872,2.22873145,-0.97732764,-2.03842391

>  <Name>
ligand

>  <RI>
0

>  <Rbt.Current_Directory>
/home/itssahil/PROJECTS/Mol_Feturizer/Test_systems_manuscript/rnas/4lx5

>  <Rbt.Executable>
rbdock ($Id: //depot/dev/client3/rdock/2013.1/src/exe/rbdock.cxx#4 $)

>  <Rbt.Library>
libRbt.so (2013.1, Build901 2013/11/27)

>  <Rbt.Parameter_File>
/export/apps/rDock/src/rDock_2013.1_src/data/scripts/dock_solv.prm

>  <Rbt.Receptor>
prm/pocket_docking_7.prm

>  <SCORE>
-15.0809

>  <SCORE.INTER>
-15.0809

>  <SCORE.INTER.CONST>
1

>  <SCORE.INTER.POLAR>
0

>  <SCORE.INTER.ROT>
0

>  <SCORE.INTER.SOLV>
16.117

>  <SCORE.INTER.VDW>
-19.0263

>  <SCORE.INTER.norm>
-1.25674

>  <SCORE.INTRA>
0

>  <SCORE.INTRA.DIHEDRAL>
0

>  <SCORE.INTRA.DIHEDRAL.0>
0

>  <SCORE.INTRA.POLAR>
0

>  <SCORE.INTRA.POLAR.0>
0

>  <SCORE.INTRA.REPUL>
0

>  <SCORE.INTRA.REPUL.0>
0

>  <SCORE.INTRA.SOLV>
0

>  <SCORE.INTRA.SOLV.lig_0>
-48.1583

>  <SCORE.INTRA.VDW>
0

>  <SCORE.INTRA.VDW.0>
0

>  <SCORE.INTRA.norm>
0

>  <SCORE.RESTR>
0

>  <SCORE.RESTR.CAVITY>
0

>  <SCORE.RESTR.norm>
0

>  <SCORE.SYSTEM>
0

>  <SCORE.SYSTEM.CONST>
0

>  <SCORE.SYSTEM.DIHEDRAL>
0

>  <SCORE.SYSTEM.SOLV>
0

>  <SCORE.SYSTEM.norm>
0

>  <SCORE.heavy>
12

>  <SCORE.norm>
-1.25674

>  <RMSD>
3.037

$$$$
ligand
 OpenBabel02271912143D
libRbt.so/2013.1/901 2013/11/27
 12 13  0  0  0  0  0  0  0  0999 V2000
    4.7214   15.4479    3.9278 C   0  0  0  0  0  0  0  0  0  0  0  0
    6.0700   17.0790    2.9502 C   0  0  0  0  0  0  0  0  0  0  0  0
    4.0524   14.3040    3.8143 N   0  0  0  0  0  0  0  0  0  0  0  0
    6.7165   17.6121    1.9077 N   0  0  0  0  0  0  0  0  0  0  0  0
    5.3694   15.9415    2.8500 N   0  0  0  0  0  0  0  0  0  0  0  0
    4.7653   16.0816    5.1207 N   0  0  0  0  0  0  0  0  0  0  0  0
    6.8699   19.6217    5.5119 N   0  0  0  0  0  0  0  0  0  0  0  0
    6.1890   19.0758    6.6109 C   0  0  0  0  0  0  0  0  0  0  0  0
    5.4641   17.8700    6.4657 N   0  0  0  0  0  0  0  0  0  0  0  0
    5.4519   17.2419    5.2701 C   0  0  0  0  0  0  0  0  0  0  0  0
    6.1347   17.7668    4.1682 C   0  0  0  0  0  0  0  0  0  0  0  0
    6.8506   18.9583    4.2690 C   0  0  0  0  0  0  0  0  0  0  0  0
  1  3  1  0  0  0  0
  1  5  1  0  0  0  0
  1  6  2  0  0  0  0
  2  5  2  0  0  0  0
  2 11  1  0  0  0  0
  2  4  1  0  0  0  0
  6 10  1  0  0  0  0
  7  8  2  0  0  0  0
  7 12  1  0  0  0  0
  8  9  1  0  0  0  0
  9 10  2  0  0  0  0
 10 11  1  0  0  0  0
 11 12  2  0  0  0  0
M  END
>  <CHROM.1>
5.70732946,17.22359625,4.39577297,2.24064924,-0.95797813,-2.02745890

>  <Name>
ligand

>  <RI>
0

>  <Rbt.Current_Directory>
/home/itssahil/PROJECTS/Mol_Feturizer/Test_systems_manuscript/rnas/4lx5

>  <Rbt.Executable>
rbdock ($Id: //depot/dev/client3/rdock/2013.1/src/exe/rbdock.cxx#4 $)

>  <Rbt.Library>
libRbt.so (2013.1, Build901 2013/11/27)

>  <Rbt.Parameter_File>
/export/apps/rDock/src/rDock_2013.1_src/data/scripts/dock_solv.prm

>  <Rbt.Receptor>
prm/pocket_docking_8.prm

>  <SCORE>
-15.0304

>  <SCORE.INTER>
-15.0304

>  <SCORE.INTER.CONST>
1

>  <SCORE.INTER.POLAR>
0

>  <SCORE.INTER.ROT>
0

>  <SCORE.INTER.SOLV>
15.8202

>  <SCORE.INTER.VDW>
-18.8937

>  <SCORE.INTER.norm>
-1.25253

>  <SCORE.INTRA>
0

>  <SCORE.INTRA.DIHEDRAL>
0

>  <SCORE.INTRA.DIHEDRAL.0>
0

>  <SCORE.INTRA.POLAR>
0

>  <SCORE.INTRA.POLAR.0>
0

>  <SCORE.INTRA.REPUL>
0

>  <SCORE.INTRA.REPUL.0>
0

>  <SCORE.INTRA.SOLV>
0

>  <SCORE.INTRA.SOLV.lig_0>
-48.1583

>  <SCORE.INTRA.VDW>
0

>  <SCORE.INTRA.VDW.0>
0

>  <SCORE.INTRA.norm>
0

>  <SCORE.RESTR>
0

>  <SCORE.RESTR.CAVITY>
0

>  <SCORE.RESTR.norm>
0

>  <SCORE.SYSTEM>
0

>  <SCORE.SYSTEM.CONST>
0

>  <SCORE.SYSTEM.DIHEDRAL>
0

>  <SCORE.SYSTEM.SOLV>
0

>  <SCORE.SYSTEM.norm>
0

>  <SCORE.heavy>
12

>  <SCORE.norm>
-1.25253

>  <RMSD>
3.037

$$$$
ligand
 OpenBabel02271912143D
libRbt.so/2013.1/901 2013/11/27
 12 13  0  0  0  0  0  0  0  0999 V2000
    4.7894   15.4506    3.9498 C   0  0  0  0  0  0  0  0  0  0  0  0
    6.1216   17.0996    2.9797 C   0  0  0  0  0  0  0  0  0  0  0  0
    4.1415   14.2949    3.8344 N   0  0  0  0  0  0  0  0  0  0  0  0
    6.7715   17.6383    1.9421 N   0  0  0  0  0  0  0  0  0  0  0  0
    5.4419   15.9497    2.8772 N   0  0  0  0  0  0  0  0  0  0  0  0
    4.8079   16.0913    5.1397 N   0  0  0  0  0  0  0  0  0  0  0  0
    6.8466   19.6691    5.5370 N   0  0  0  0  0  0  0  0  0  0  0  0
    6.1618   19.1172    6.6306 C   0  0  0  0  0  0  0  0  0  0  0  0
    5.4595   17.8983    6.4832 N   0  0  0  0  0  0  0  0  0  0  0  0
    5.4726   17.2639    5.2911 C   0  0  0  0  0  0  0  0  0  0  0  0
    6.1597   17.7948    4.1946 C   0  0  0  0  0  0  0  0  0  0  0  0
    6.8538   18.9989    4.2976 C   0  0  0  0  0  0  0  0  0  0  0  0
  1  3  1  0  0  0  0
  1  5  1  0  0  0  0
  1  6  2  0  0  0  0
  2  5  2  0  0  0  0
  2 11  1  0  0  0  0
  2  4  1  0  0  0  0
  6 10  1  0  0  0  0
  7  8  2  0  0  0  0
  7 12  1  0  0  0  0
  8  9  1  0  0  0  0
  9 10  2  0  0  0  0
 10 11  1  0  0  0  0
 11 12  2  0  0  0  0
M  END
>  <CHROM.1>
5.73896715,17.24547411,4.41996839,2.20807904,-0.96775414,-2.05951961

>  <Name>
ligand

>  <RI>
0

>  <Rbt.Current_Directory>
/home/itssahil/PROJECTS/Mol_Feturizer/Test_systems_manuscript/rnas/4lx5

>  <Rbt.Executable>
rbdock ($Id: //depot/dev/client3/rdock/2013.1/src/exe/rbdock.cxx#4 $)

>  <Rbt.Library>
libRbt.so (2013.1, Build901 2013/11/27)

>  <Rbt.Parameter_File>
/export/apps/rDock/src/rDock_2013.1_src/data/scripts/dock_solv.prm

>  <Rbt.Receptor>
prm/blind_docking_40.prm

>  <SCORE>
-15.0884

>  <SCORE.INTER>
-15.0884

>  <SCORE.INTER.CONST>
1

>  <SCORE.INTER.POLAR>
0

>  <SCORE.INTER.ROT>
0

>  <SCORE.INTER.SOLV>
16.2994

>  <SCORE.INTER.VDW>
-19.0921

>  <SCORE.INTER.norm>
-1.25737

>  <SCORE.INTRA>
0

>  <SCORE.INTRA.DIHEDRAL>
0

>  <SCORE.INTRA.DIHEDRAL.0>
0

>  <SCORE.INTRA.POLAR>
0

>  <SCORE.INTRA.POLAR.0>
0

>  <SCORE.INTRA.REPUL>
0

>  <SCORE.INTRA.REPUL.0>
0

>  <SCORE.INTRA.SOLV>
0

>  <SCORE.INTRA.SOLV.lig_0>
-48.1583

>  <SCORE.INTRA.VDW>
0

>  <SCORE.INTRA.VDW.0>
0

>  <SCORE.INTRA.norm>
0

>  <SCORE.RESTR>
0

>  <SCORE.RESTR.CAVITY>
0

>  <SCORE.RESTR.norm>
0

>  <SCORE.SYSTEM>
0

>  <SCORE.SYSTEM.CONST>
0

>  <SCORE.SYSTEM.DIHEDRAL>
0

>  <SCORE.SYSTEM.SOLV>
0

>  <SCORE.SYSTEM.norm>
0

>  <SCORE.heavy>
12

>  <SCORE.norm>
-1.25737

>  <RMSD>
3.038

$$$$
ligand
 OpenBabel02271912143D
libRbt.so/2013.1/901 2013/11/27
 12 13  0  0  0  0  0  0  0  0999 V2000
    4.7241   15.4350    3.9263 C   0  0  0  0  0  0  0  0  0  0  0  0
    6.0601   17.0790    2.9530 C   0  0  0  0  0  0  0  0  0  0  0  0
    4.0632   14.2868    3.8096 N   0  0  0  0  0  0  0  0  0  0  0  0
    6.7018   17.6201    1.9117 N   0  0  0  0  0  0  0  0  0  0  0  0
    5.3676   15.9368    2.8497 N   0  0  0  0  0  0  0  0  0  0  0  0
    4.7646   16.0650    5.1214 N   0  0  0  0  0  0  0  0  0  0  0  0
    6.8443   19.6187    5.5225 N   0  0  0  0  0  0  0  0  0  0  0  0
    6.1683   19.0642    6.6203 C   0  0  0  0  0  0  0  0  0  0  0  0
    5.4518   17.8538    6.4717 N   0  0  0  0  0  0  0  0  0  0  0  0
    5.4430   17.2296    5.2740 C   0  0  0  0  0  0  0  0  0  0  0  0
    6.1211   17.7631    4.1733 C   0  0  0  0  0  0  0  0  0  0  0  0
    6.8286   18.9593    4.2775 C   0  0  0  0  0  0  0  0  0  0  0  0
  1  3  1  0  0  0  0
  1  5  1  0  0  0  0
  1  6  2  0  0  0  0
  2  5  2  0  0  0  0
  2 11  1  0  0  0  0
  2  4  1  0  0  0  0
  6 10  1  0  0  0  0
  7  8  2  0  0  0  0
  7 12  1  0  0  0  0
  8  9  1  0  0  0  0
  9 10  2  0  0  0  0
 10 11  1  0  0  0  0
 11 12  2  0  0  0  0
M  END
>  <CHROM.1>
5.69778450,17.21609351,4.39941796,2.23658759,-0.96478072,-2.02743067

>  <Name>
ligand

>  <RI>
0

>  <Rbt.Current_Directory>
/home/itssahil/PROJECTS/Mol_Feturizer/Test_systems_manuscript/rnas/4lx5

>  <Rbt.Executable>
rbdock ($Id: //depot/dev/client3/rdock/2013.1/src/exe/rbdock.cxx#4 $)

>  <Rbt.Library>
libRbt.so (2013.1, Build901 2013/11/27)

>  <Rbt.Parameter_File>
/export/apps/rDock/src/rDock_2013.1_src/data/scripts/dock_solv.prm

>  <Rbt.Receptor>
prm/blind_docking_60.prm

>  <SCORE>
-15.0338

>  <SCORE.INTER>
-15.0338

>  <SCORE.INTER.CONST>
1

>  <SCORE.INTER.POLAR>
0

>  <SCORE.INTER.ROT>
0

>  <SCORE.INTER.SOLV>
15.8566

>  <SCORE.INTER.VDW>
-18.9081

>  <SCORE.INTER.norm>
-1.25282

>  <SCORE.INTRA>
0

>  <SCORE.INTRA.DIHEDRAL>
0

>  <SCORE.INTRA.DIHEDRAL.0>
0

>  <SCORE.INTRA.POLAR>
0

>  <SCORE.INTRA.POLAR.0>
0

>  <SCORE.INTRA.REPUL>
0

>  <SCORE.INTRA.REPUL.0>
0

>  <SCORE.INTRA.SOLV>
0

>  <SCORE.INTRA.SOLV.lig_0>
-48.1583

>  <SCORE.INTRA.VDW>
0

>  <SCORE.INTRA.VDW.0>
0

>  <SCORE.INTRA.norm>
0

>  <SCORE.RESTR>
0

>  <SCORE.RESTR.CAVITY>
0

>  <SCORE.RESTR.norm>
0

>  <SCORE.SYSTEM>
0

>  <SCORE.SYSTEM.CONST>
0

>  <SCORE.SYSTEM.DIHEDRAL>
0

>  <SCORE.SYSTEM.SOLV>
0

>  <SCORE.SYSTEM.norm>
0

>  <SCORE.heavy>
12

>  <SCORE.norm>
-1.25282

>  <RMSD>
3.038

$$$$
ligand
 OpenBabel02271912143D
libRbt.so/2013.1/901 2013/11/27
 12 13  0  0  0  0  0  0  0  0999 V2000
    4.7194   15.4463    3.9329 C   0  0  0  0  0  0  0  0  0  0  0  0
    6.0625   17.0766    2.9465 C   0  0  0  0  0  0  0  0  0  0  0  0
    4.0511   14.3015    3.8245 N   0  0  0  0  0  0  0  0  0  0  0  0
    6.7046   17.6080    1.9004 N   0  0  0  0  0  0  0  0  0  0  0  0
    5.3628   15.9381    2.8516 N   0  0  0  0  0  0  0  0  0  0  0  0
    4.7670   16.0828    5.1242 N   0  0  0  0  0  0  0  0  0  0  0  0
    6.8693   19.6260    5.4994 N   0  0  0  0  0  0  0  0  0  0  0  0
    6.1930   19.0819    6.6022 C   0  0  0  0  0  0  0  0  0  0  0  0
    5.4688   17.8749    6.4624 N   0  0  0  0  0  0  0  0  0  0  0  0
    5.4529   17.2441    5.2684 C   0  0  0  0  0  0  0  0  0  0  0  0
    6.1311   17.7673    4.1627 C   0  0  0  0  0  0  0  0  0  0  0  0
    6.8461   18.9597    4.2582 C   0  0  0  0  0  0  0  0  0  0  0  0
  1  3  1  0  0  0  0
  1  5  1  0  0  0  0
  1  6  2  0  0  0  0
  2  5  2  0  0  0  0
  2 11  1  0  0  0  0
  2  4  1  0  0  0  0
  6 10  1  0  0  0  0
  7  8  2  0  0  0  0
  7 12  1  0  0  0  0
  8  9  1  0  0  0  0
  9 10  2  0  0  0  0
 10 11  1  0  0  0  0
 11 12  2  0  0  0  0
M  END
>  <CHROM.1>
5.70510503,17.22410948,4.39313479,2.24565273,-0.96056315,-2.02564567

>  <Name>
ligand

>  <RI>
0

>  <Rbt.Current_Directory>
/home/itssahil/PROJECTS/Mol_Feturizer/Test_systems_manuscript/rnas/4lx5

>  <Rbt.Executable>
rbdock ($Id: //depot/dev/client3/rdock/2013.1/src/exe/rbdock.cxx#4 $)

>  <Rbt.Library>
libRbt.so (2013.1, Build901 2013/11/27)

>  <Rbt.Parameter_File>
/export/apps/rDock/src/rDock_2013.1_src/data/scripts/dock_solv.prm

>  <Rbt.Receptor>
prm/blind_docking_80.prm

>  <SCORE>
-15.0335

>  <SCORE.INTER>
-15.0335

>  <SCORE.INTER.CONST>
1

>  <SCORE.INTER.POLAR>
0

>  <SCORE.INTER.ROT>
0

>  <SCORE.INTER.SOLV>
15.8176

>  <SCORE.INTER.VDW>
-18.8949

>  <SCORE.INTER.norm>
-1.25279

>  <SCORE.INTRA>
0

>  <SCORE.INTRA.DIHEDRAL>
0

>  <SCORE.INTRA.DIHEDRAL.0>
0

>  <SCORE.INTRA.POLAR>
0

>  <SCORE.INTRA.POLAR.0>
0

>  <SCORE.INTRA.REPUL>
0

>  <SCORE.INTRA.REPUL.0>
0

>  <SCORE.INTRA.SOLV>
0

>  <SCORE.INTRA.SOLV.lig_0>
-48.1583

>  <SCORE.INTRA.VDW>
0

>  <SCORE.INTRA.VDW.0>
0

>  <SCORE.INTRA.norm>
0

>  <SCORE.RESTR>
0

>  <SCORE.RESTR.CAVITY>
0

>  <SCORE.RESTR.norm>
0

>  <SCORE.SYSTEM>
0

>  <SCORE.SYSTEM.CONST>
0

>  <SCORE.SYSTEM.DIHEDRAL>
0

>  <SCORE.SYSTEM.SOLV>
0

>  <SCORE.SYSTEM.norm>
0

>  <SCORE.heavy>
12

>  <SCORE.norm>
-1.25279

>  <RMSD>
3.038

$$$$
ligand
 OpenBabel02271912143D
libRbt.so/2013.1/901 2013/11/27
 12 13  0  0  0  0  0  0  0  0999 V2000
    4.7733   15.4582    3.9477 C   0  0  0  0  0  0  0  0  0  0  0  0
    6.0981   17.1086    2.9699 C   0  0  0  0  0  0  0  0  0  0  0  0
    4.1234   14.3033    3.8352 N   0  0  0  0  0  0  0  0  0  0  0  0
    6.7392   17.6494    1.9280 N   0  0  0  0  0  0  0  0  0  0  0  0
    5.4166   15.9596    2.8706 N   0  0  0  0  0  0  0  0  0  0  0  0
    4.8031   16.0957    5.1391 N   0  0  0  0  0  0  0  0  0  0  0  0
    6.8486   19.6706    5.5274 N   0  0  0  0  0  0  0  0  0  0  0  0
    6.1732   19.1165    6.6257 C   0  0  0  0  0  0  0  0  0  0  0  0
    5.4685   17.8986    6.4814 N   0  0  0  0  0  0  0  0  0  0  0  0
    5.4703   17.2673    5.2875 C   0  0  0  0  0  0  0  0  0  0  0  0
    6.1479   17.8005    4.1864 C   0  0  0  0  0  0  0  0  0  0  0  0
    6.8440   19.0038    4.2862 C   0  0  0  0  0  0  0  0  0  0  0  0
  1  3  1  0  0  0  0
  1  5  1  0  0  0  0
  1  6  2  0  0  0  0
  2  5  2  0  0  0  0
  2 11  1  0  0  0  0
  2  4  1  0  0  0  0
  6 10  1  0  0  0  0
  7  8  2  0  0  0  0
  7 12  1  0  0  0  0
  8  9  1  0  0  0  0
  9 10  2  0  0  0  0
 10 11  1  0  0  0  0
 11 12  2  0  0  0  0
M  END
>  <CHROM.1>
5.72869217,17.25097081,4.41403550,2.22294802,-0.97115044,-2.04462143

>  <Name>
ligand

>  <RI>
0

>  <Rbt.Current_Directory>
/home/itssahil/PROJECTS/Mol_Feturizer/Test_systems_manuscript/rnas/4lx5

>  <Rbt.Executable>
rbdock ($Id: //depot/dev/client3/rdock/2013.1/src/exe/rbdock.cxx#4 $)

>  <Rbt.Library>
libRbt.so (2013.1, Build901 2013/11/27)

>  <Rbt.Parameter_File>
/export/apps/rDock/src/rDock_2013.1_src/data/scripts/dock_solv.prm

>  <Rbt.Receptor>
prm/pocket_docking_4.prm

>  <SCORE>
-15.0772

>  <SCORE.INTER>
-15.0772

>  <SCORE.INTER.CONST>
1

>  <SCORE.INTER.POLAR>
0

>  <SCORE.INTER.ROT>
0

>  <SCORE.INTER.SOLV>
16.1903

>  <SCORE.INTER.VDW>
-19.0482

>  <SCORE.INTER.norm>
-1.25643

>  <SCORE.INTRA>
0

>  <SCORE.INTRA.DIHEDRAL>
0

>  <SCORE.INTRA.DIHEDRAL.0>
0

>  <SCORE.INTRA.POLAR>
0

>  <SCORE.INTRA.POLAR.0>
0

>  <SCORE.INTRA.REPUL>
0

>  <SCORE.INTRA.REPUL.0>
0

>  <SCORE.INTRA.SOLV>
0

>  <SCORE.INTRA.SOLV.lig_0>
-48.1583

>  <SCORE.INTRA.VDW>
0

>  <SCORE.INTRA.VDW.0>
0

>  <SCORE.INTRA.norm>
0

>  <SCORE.RESTR>
0

>  <SCORE.RESTR.CAVITY>
0

>  <SCORE.RESTR.norm>
0

>  <SCORE.SYSTEM>
0

>  <SCORE.SYSTEM.CONST>
0

>  <SCORE.SYSTEM.DIHEDRAL>
0

>  <SCORE.SYSTEM.SOLV>
0

>  <SCORE.SYSTEM.norm>
0

>  <SCORE.heavy>
12

>  <SCORE.norm>
-1.25643

>  <RMSD>
3.038

$$$$
ligand
 OpenBabel02271912143D
libRbt.so/2013.1/901 2013/11/27
 12 13  0  0  0  0  0  0  0  0999 V2000
    4.7851   15.4512    3.9521 C   0  0  0  0  0  0  0  0  0  0  0  0
    6.1105   17.1006    2.9734 C   0  0  0  0  0  0  0  0  0  0  0  0
    4.1393   14.2938    3.8419 N   0  0  0  0  0  0  0  0  0  0  0  0
    6.7558   17.6380    1.9324 N   0  0  0  0  0  0  0  0  0  0  0  0
    5.4330   15.9490    2.8762 N   0  0  0  0  0  0  0  0  0  0  0  0
    4.8063   16.0949    5.1404 N   0  0  0  0  0  0  0  0  0  0  0  0
    6.8387   19.6780    5.5218 N   0  0  0  0  0  0  0  0  0  0  0  0
    6.1588   19.1274    6.6192 C   0  0  0  0  0  0  0  0  0  0  0  0
    5.4586   17.9067    6.4772 N   0  0  0  0  0  0  0  0  0  0  0  0
    5.4690   17.2693    5.2866 C   0  0  0  0  0  0  0  0  0  0  0  0
    6.1513   17.7989    4.1865 C   0  0  0  0  0  0  0  0  0  0  0  0
    6.8431   19.0047    4.2841 C   0  0  0  0  0  0  0  0  0  0  0  0
  1  3  1  0  0  0  0
  1  5  1  0  0  0  0
  1  6  2  0  0  0  0
  2  5  2  0  0  0  0
  2 11  1  0  0  0  0
  2  4  1  0  0  0  0
  6 10  1  0  0  0  0
  7  8  2  0  0  0  0
  7 12  1  0  0  0  0
  8  9  1  0  0  0  0
  9 10  2  0  0  0  0
 10 11  1  0  0  0  0
 11 12  2  0  0  0  0
M  END
>  <CHROM.1>
5.73244499,17.24925020,4.41463711,2.21158487,-0.97121771,-2.05913896

>  <Name>
ligand

>  <RI>
0

>  <Rbt.Current_Directory>
/home/itssahil/PROJECTS/Mol_Feturizer/Test_systems_manuscript/rnas/4lx5

>  <Rbt.Executable>
rbdock ($Id: //depot/dev/client3/rdock/2013.1/src/exe/rbdock.cxx#4 $)

>  <Rbt.Library>
libRbt.so (2013.1, Build901 2013/11/27)

>  <Rbt.Parameter_File>
/export/apps/rDock/src/rDock_2013.1_src/data/scripts/dock_solv.prm

>  <Rbt.Receptor>
prm/pocket_docking_6.prm

>  <SCORE>
-15.0515

>  <SCORE.INTER>
-15.0515

>  <SCORE.INTER.CONST>
1

>  <SCORE.INTER.POLAR>
0

>  <SCORE.INTER.ROT>
0

>  <SCORE.INTER.SOLV>
16.2926

>  <SCORE.INTER.VDW>
-19.0652

>  <SCORE.INTER.norm>
-1.25429

>  <SCORE.INTRA>
0

>  <SCORE.INTRA.DIHEDRAL>
0

>  <SCORE.INTRA.DIHEDRAL.0>
0

>  <SCORE.INTRA.POLAR>
0

>  <SCORE.INTRA.POLAR.0>
0

>  <SCORE.INTRA.REPUL>
0

>  <SCORE.INTRA.REPUL.0>
0

>  <SCORE.INTRA.SOLV>
0

>  <SCORE.INTRA.SOLV.lig_0>
-48.1583

>  <SCORE.INTRA.VDW>
0

>  <SCORE.INTRA.VDW.0>
0

>  <SCORE.INTRA.norm>
0

>  <SCORE.RESTR>
0

>  <SCORE.RESTR.CAVITY>
0

>  <SCORE.RESTR.norm>
0

>  <SCORE.SYSTEM>
0

>  <SCORE.SYSTEM.CONST>
0

>  <SCORE.SYSTEM.DIHEDRAL>
0

>  <SCORE.SYSTEM.SOLV>
0

>  <SCORE.SYSTEM.norm>
0

>  <SCORE.heavy>
12

>  <SCORE.norm>
-1.25429

>  <RMSD>
3.038

$$$$
ligand
 OpenBabel02271912143D
libRbt.so/2013.1/901 2013/11/27
 12 13  0  0  0  0  0  0  0  0999 V2000
    4.7038   15.3929    3.9216 C   0  0  0  0  0  0  0  0  0  0  0  0
    6.0559   17.0164    2.9361 C   0  0  0  0  0  0  0  0  0  0  0  0
    4.0338   14.2490    3.8143 N   0  0  0  0  0  0  0  0  0  0  0  0
    6.7049   17.5421    1.8914 N   0  0  0  0  0  0  0  0  0  0  0  0
    5.3544   15.8789    2.8419 N   0  0  0  0  0  0  0  0  0  0  0  0
    4.7461   16.0343    5.1105 N   0  0  0  0  0  0  0  0  0  0  0  0
    6.8535   19.5748    5.4828 N   0  0  0  0  0  0  0  0  0  0  0  0
    6.1699   19.0366    6.5841 C   0  0  0  0  0  0  0  0  0  0  0  0
    5.4441   17.8306    6.4452 N   0  0  0  0  0  0  0  0  0  0  0  0
    5.4335   17.1948    5.2538 C   0  0  0  0  0  0  0  0  0  0  0  0
    6.1190   17.7120    4.1498 C   0  0  0  0  0  0  0  0  0  0  0  0
    6.8359   18.9034    4.2443 C   0  0  0  0  0  0  0  0  0  0  0  0
  1  3  1  0  0  0  0
  1  5  1  0  0  0  0
  1  6  2  0  0  0  0
  2  5  2  0  0  0  0
  2 11  1  0  0  0  0
  2  4  1  0  0  0  0
  6 10  1  0  0  0  0
  7  8  2  0  0  0  0
  7 12  1  0  0  0  0
  8  9  1  0  0  0  0
  9 10  2  0  0  0  0
 10 11  1  0  0  0  0
 11 12  2  0  0  0  0
M  END
>  <CHROM.1>
5.69062191,17.17064041,4.38004285,2.23845653,-0.95623298,-2.03571195

>  <Name>
ligand

>  <RI>
0

>  <Rbt.Current_Directory>
/home/itssahil/PROJECTS/Mol_Feturizer/Test_systems_manuscript/rnas/4lx5

>  <Rbt.Executable>
rbdock ($Id: //depot/dev/client3/rdock/2013.1/src/exe/rbdock.cxx#4 $)

>  <Rbt.Library>
libRbt.so (2013.1, Build901 2013/11/27)

>  <Rbt.Parameter_File>
/export/apps/rDock/src/rDock_2013.1_src/data/scripts/dock_solv.prm

>  <Rbt.Receptor>
prm/blind_docking_60.prm

>  <SCORE>
-14.9941

>  <SCORE.INTER>
-14.9941

>  <SCORE.INTER.CONST>
1

>  <SCORE.INTER.POLAR>
0

>  <SCORE.INTER.ROT>
0

>  <SCORE.INTER.SOLV>
15.7487

>  <SCORE.INTER.VDW>
-18.8456

>  <SCORE.INTER.norm>
-1.24951

>  <SCORE.INTRA>
0

>  <SCORE.INTRA.DIHEDRAL>
0

>  <SCORE.INTRA.DIHEDRAL.0>
0

>  <SCORE.INTRA.POLAR>
0

>  <SCORE.INTRA.POLAR.0>
0

>  <SCORE.INTRA.REPUL>
0

>  <SCORE.INTRA.REPUL.0>
0

>  <SCORE.INTRA.SOLV>
0

>  <SCORE.INTRA.SOLV.lig_0>
-48.1583

>  <SCORE.INTRA.VDW>
0

>  <SCORE.INTRA.VDW.0>
0

>  <SCORE.INTRA.norm>
0

>  <SCORE.RESTR>
0

>  <SCORE.RESTR.CAVITY>
0

>  <SCORE.RESTR.norm>
0

>  <SCORE.SYSTEM>
0

>  <SCORE.SYSTEM.CONST>
0

>  <SCORE.SYSTEM.DIHEDRAL>
0

>  <SCORE.SYSTEM.SOLV>
0

>  <SCORE.SYSTEM.norm>
0

>  <SCORE.heavy>
12

>  <SCORE.norm>
-1.24951

>  <RMSD>
3.039

$$$$
ligand
 OpenBabel02271912143D
libRbt.so/2013.1/901 2013/11/27
 12 13  0  0  0  0  0  0  0  0999 V2000
    4.6907   15.3908    3.9165 C   0  0  0  0  0  0  0  0  0  0  0  0
    6.0685   16.9924    2.9309 C   0  0  0  0  0  0  0  0  0  0  0  0
    4.0097   14.2532    3.8119 N   0  0  0  0  0  0  0  0  0  0  0  0
    6.7324   17.5031    1.8882 N   0  0  0  0  0  0  0  0  0  0  0  0
    5.3560   15.8616    2.8391 N   0  0  0  0  0  0  0  0  0  0  0  0
    4.7289   16.0409    5.1008 N   0  0  0  0  0  0  0  0  0  0  0  0
    6.8699   19.5621    5.4651 N   0  0  0  0  0  0  0  0  0  0  0  0
    6.1709   19.0396    6.5641 C   0  0  0  0  0  0  0  0  0  0  0  0
    5.4337   17.8402    6.4280 N   0  0  0  0  0  0  0  0  0  0  0  0
    5.4272   17.1953    5.2414 C   0  0  0  0  0  0  0  0  0  0  0  0
    6.1280   17.6967    4.1397 C   0  0  0  0  0  0  0  0  0  0  0  0
    6.8565   18.8812    4.2316 C   0  0  0  0  0  0  0  0  0  0  0  0
  1  3  1  0  0  0  0
  1  5  1  0  0  0  0
  1  6  2  0  0  0  0
  2  5  2  0  0  0  0
  2 11  1  0  0  0  0
  2  4  1  0  0  0  0
  6 10  1  0  0  0  0
  7  8  2  0  0  0  0
  7 12  1  0  0  0  0
  8  9  1  0  0  0  0
  9 10  2  0  0  0  0
 10 11  1  0  0  0  0
 11 12  2  0  0  0  0
M  END
>  <CHROM.1>
5.69190824,17.16165489,4.37023585,2.23274278,-0.94280396,-2.04808703

>  <Name>
ligand

>  <RI>
0

>  <Rbt.Current_Directory>
/home/itssahil/PROJECTS/Mol_Feturizer/Test_systems_manuscript/rnas/4lx5

>  <Rbt.Executable>
rbdock ($Id: //depot/dev/client3/rdock/2013.1/src/exe/rbdock.cxx#4 $)

>  <Rbt.Library>
libRbt.so (2013.1, Build901 2013/11/27)

>  <Rbt.Parameter_File>
/export/apps/rDock/src/rDock_2013.1_src/data/scripts/dock_solv.prm

>  <Rbt.Receptor>
prm/pocket_docking_5.prm

>  <SCORE>
-15.0092

>  <SCORE.INTER>
-15.0092

>  <SCORE.INTER.CONST>
1

>  <SCORE.INTER.POLAR>
0

>  <SCORE.INTER.ROT>
0

>  <SCORE.INTER.SOLV>
15.7085

>  <SCORE.INTER.VDW>
-18.8423

>  <SCORE.INTER.norm>
-1.25077

>  <SCORE.INTRA>
0

>  <SCORE.INTRA.DIHEDRAL>
0

>  <SCORE.INTRA.DIHEDRAL.0>
0

>  <SCORE.INTRA.POLAR>
0

>  <SCORE.INTRA.POLAR.0>
0

>  <SCORE.INTRA.REPUL>
0

>  <SCORE.INTRA.REPUL.0>
0

>  <SCORE.INTRA.SOLV>
0

>  <SCORE.INTRA.SOLV.lig_0>
-48.1583

>  <SCORE.INTRA.VDW>
0

>  <SCORE.INTRA.VDW.0>
0

>  <SCORE.INTRA.norm>
0

>  <SCORE.RESTR>
0

>  <SCORE.RESTR.CAVITY>
0

>  <SCORE.RESTR.norm>
0

>  <SCORE.SYSTEM>
0

>  <SCORE.SYSTEM.CONST>
0

>  <SCORE.SYSTEM.DIHEDRAL>
0

>  <SCORE.SYSTEM.SOLV>
0

>  <SCORE.SYSTEM.norm>
0

>  <SCORE.heavy>
12

>  <SCORE.norm>
-1.25077

>  <RMSD>
3.039

$$$$
ligand
 OpenBabel02271912143D
libRbt.so/2013.1/901 2013/11/27
 12 13  0  0  0  0  0  0  0  0999 V2000
    4.6999   15.3850    3.9238 C   0  0  0  0  0  0  0  0  0  0  0  0
    6.0665   16.9898    2.9278 C   0  0  0  0  0  0  0  0  0  0  0  0
    4.0234   14.2442    3.8252 N   0  0  0  0  0  0  0  0  0  0  0  0
    6.7236   17.5005    1.8807 N   0  0  0  0  0  0  0  0  0  0  0  0
    5.3584   15.8557    2.8422 N   0  0  0  0  0  0  0  0  0  0  0  0
    4.7406   16.0385    5.1061 N   0  0  0  0  0  0  0  0  0  0  0  0
    6.8681   19.5697    5.4515 N   0  0  0  0  0  0  0  0  0  0  0  0
    6.1761   19.0472    6.5550 C   0  0  0  0  0  0  0  0  0  0  0  0
    5.4434   17.8443    6.4253 N   0  0  0  0  0  0  0  0  0  0  0  0
    5.4345   17.1962    5.2405 C   0  0  0  0  0  0  0  0  0  0  0  0
    6.1283   17.6976    4.1344 C   0  0  0  0  0  0  0  0  0  0  0  0
    6.8521   18.8855    4.2199 C   0  0  0  0  0  0  0  0  0  0  0  0
  1  3  1  0  0  0  0
  1  5  1  0  0  0  0
  1  6  2  0  0  0  0
  2  5  2  0  0  0  0
  2 11  1  0  0  0  0
  2  4  1  0  0  0  0
  6 10  1  0  0  0  0
  7  8  2  0  0  0  0
  7 12  1  0  0  0  0
  8  9  1  0  0  0  0
  9 10  2  0  0  0  0
 10 11  1  0  0  0  0
 11 12  2  0  0  0  0
M  END
>  <CHROM.1>
5.69549981,17.16132160,4.36829162,2.23609586,-0.94863476,-2.04805713

>  <Name>
ligand

>  <RI>
0

>  <Rbt.Current_Directory>
/home/itssahil/PROJECTS/Mol_Feturizer/Test_systems_manuscript/rnas/4lx5

>  <Rbt.Executable>
rbdock ($Id: //depot/dev/client3/rdock/2013.1/src/exe/rbdock.cxx#4 $)

>  <Rbt.Library>
libRbt.so (2013.1, Build901 2013/11/27)

>  <Rbt.Parameter_File>
/export/apps/rDock/src/rDock_2013.1_src/data/scripts/dock_solv.prm

>  <Rbt.Receptor>
prm/pocket_docking_6.prm

>  <SCORE>
-15.0085

>  <SCORE.INTER>
-15.0085

>  <SCORE.INTER.CONST>
1

>  <SCORE.INTER.POLAR>
0

>  <SCORE.INTER.ROT>
0

>  <SCORE.INTER.SOLV>
15.7807

>  <SCORE.INTER.VDW>
-18.8659

>  <SCORE.INTER.norm>
-1.2507

>  <SCORE.INTRA>
0

>  <SCORE.INTRA.DIHEDRAL>
0

>  <SCORE.INTRA.DIHEDRAL.0>
0

>  <SCORE.INTRA.POLAR>
0

>  <SCORE.INTRA.POLAR.0>
0

>  <SCORE.INTRA.REPUL>
0

>  <SCORE.INTRA.REPUL.0>
0

>  <SCORE.INTRA.SOLV>
0

>  <SCORE.INTRA.SOLV.lig_0>
-48.1583

>  <SCORE.INTRA.VDW>
0

>  <SCORE.INTRA.VDW.0>
0

>  <SCORE.INTRA.norm>
0

>  <SCORE.RESTR>
0

>  <SCORE.RESTR.CAVITY>
0

>  <SCORE.RESTR.norm>
0

>  <SCORE.SYSTEM>
0

>  <SCORE.SYSTEM.CONST>
0

>  <SCORE.SYSTEM.DIHEDRAL>
0

>  <SCORE.SYSTEM.SOLV>
0

>  <SCORE.SYSTEM.norm>
0

>  <SCORE.heavy>
12

>  <SCORE.norm>
-1.2507

>  <RMSD>
3.039

$$$$
ligand
 OpenBabel02271912143D
libRbt.so/2013.1/901 2013/11/27
 12 13  0  0  0  0  0  0  0  0999 V2000
    4.3067   15.7228    3.8113 C   0  0  0  0  0  0  0  0  0  0  0  0
    5.9295   17.1037    2.8655 C   0  0  0  0  0  0  0  0  0  0  0  0
    3.4330   14.7299    3.6717 N   0  0  0  0  0  0  0  0  0  0  0  0
    6.6553   17.5411    1.8306 N   0  0  0  0  0  0  0  0  0  0  0  0
    5.0262   16.1225    2.7399 N   0  0  0  0  0  0  0  0  0  0  0  0
    4.4804   16.2957    5.0231 N   0  0  0  0  0  0  0  0  0  0  0  0
    7.2184   19.3610    5.4944 N   0  0  0  0  0  0  0  0  0  0  0  0
    6.4570   18.9155    6.5858 C   0  0  0  0  0  0  0  0  0  0  0  0
    5.5163   17.8733    6.4135 N   0  0  0  0  0  0  0  0  0  0  0  0
    5.3748   17.3002    5.1988 C   0  0  0  0  0  0  0  0  0  0  0  0
    6.1342   17.7248    4.1037 C   0  0  0  0  0  0  0  0  0  0  0  0
    7.0628   18.7561    4.2314 C   0  0  0  0  0  0  0  0  0  0  0  0
  1  3  1  0  0  0  0
  1  5  1  0  0  0  0
  1  6  2  0  0  0  0
  2  5  2  0  0  0  0
  2 11  1  0  0  0  0
  2  4  1  0  0  0  0
  6 10  1  0  0  0  0
  7  8  2  0  0  0  0
  7 12  1  0  0  0  0
  8  9  1  0  0  0  0
  9 10  2  0  0  0  0
 10 11  1  0  0  0  0
 11 12  2  0  0  0  0
M  END
>  <CHROM.1>
5.61411067,17.26419817,4.32041642,2.37063118,-0.78712382,-1.89399905

>  <Name>
ligand

>  <RI>
0

>  <Rbt.Current_Directory>
/home/itssahil/PROJECTS/Mol_Feturizer/Test_systems_manuscript/rnas/4lx5

>  <Rbt.Executable>
rbdock ($Id: //depot/dev/client3/rdock/2013.1/src/exe/rbdock.cxx#4 $)

>  <Rbt.Library>
libRbt.so (2013.1, Build901 2013/11/27)

>  <Rbt.Parameter_File>
/export/apps/rDock/src/rDock_2013.1_src/data/scripts/dock_solv.prm

>  <Rbt.Receptor>
prm/pocket_docking_7.prm

>  <SCORE>
-14.2807

>  <SCORE.INTER>
-14.2807

>  <SCORE.INTER.CONST>
1

>  <SCORE.INTER.POLAR>
0

>  <SCORE.INTER.ROT>
0

>  <SCORE.INTER.SOLV>
13.3003

>  <SCORE.INTER.VDW>
-17.5539

>  <SCORE.INTER.norm>
-1.19006

>  <SCORE.INTRA>
0

>  <SCORE.INTRA.DIHEDRAL>
0

>  <SCORE.INTRA.DIHEDRAL.0>
0

>  <SCORE.INTRA.POLAR>
0

>  <SCORE.INTRA.POLAR.0>
0

>  <SCORE.INTRA.REPUL>
0

>  <SCORE.INTRA.REPUL.0>
0

>  <SCORE.INTRA.SOLV>
0

>  <SCORE.INTRA.SOLV.lig_0>
-48.1583

>  <SCORE.INTRA.VDW>
0

>  <SCORE.INTRA.VDW.0>
0

>  <SCORE.INTRA.norm>
0

>  <SCORE.RESTR>
0

>  <SCORE.RESTR.CAVITY>
0

>  <SCORE.RESTR.norm>
0

>  <SCORE.SYSTEM>
0

>  <SCORE.SYSTEM.CONST>
0

>  <SCORE.SYSTEM.DIHEDRAL>
0

>  <SCORE.SYSTEM.SOLV>
0

>  <SCORE.SYSTEM.norm>
0

>  <SCORE.heavy>
12

>  <SCORE.norm>
-1.19006

>  <RMSD>
3.039

$$$$
ligand
 OpenBabel02271912143D
libRbt.so/2013.1/901 2013/11/27
 12 13  0  0  0  0  0  0  0  0999 V2000
    4.6994   15.4877    3.9352 C   0  0  0  0  0  0  0  0  0  0  0  0
    6.0881   17.0854    2.9585 C   0  0  0  0  0  0  0  0  0  0  0  0
    4.0115   14.3548    3.8244 N   0  0  0  0  0  0  0  0  0  0  0  0
    6.7563   17.5970    1.9189 N   0  0  0  0  0  0  0  0  0  0  0  0
    5.3687   15.9595    2.8607 N   0  0  0  0  0  0  0  0  0  0  0  0
    4.7403   16.1321    5.1225 N   0  0  0  0  0  0  0  0  0  0  0  0
    6.9025   19.6382    5.5056 N   0  0  0  0  0  0  0  0  0  0  0  0
    6.1991   19.1149    6.6014 C   0  0  0  0  0  0  0  0  0  0  0  0
    5.4547   17.9207    6.4589 N   0  0  0  0  0  0  0  0  0  0  0  0
    5.4455   17.2814    5.2693 C   0  0  0  0  0  0  0  0  0  0  0  0
    6.1506   17.7837    4.1707 C   0  0  0  0  0  0  0  0  0  0  0  0
    6.8862   18.9633    4.2689 C   0  0  0  0  0  0  0  0  0  0  0  0
  1  3  1  0  0  0  0
  1  5  1  0  0  0  0
  1  6  2  0  0  0  0
  2  5  2  0  0  0  0
  2 11  1  0  0  0  0
  2  4  1  0  0  0  0
  6 10  1  0  0  0  0
  7  8  2  0  0  0  0
  7 12  1  0  0  0  0
  8  9  1  0  0  0  0
  9 10  2  0  0  0  0
 10 11  1  0  0  0  0
 11 12  2  0  0  0  0
M  END
>  <CHROM.1>
5.71095621,17.25026385,4.39825740,2.23587776,-0.93683554,-2.04086071

>  <Name>
ligand

>  <RI>
0

>  <Rbt.Current_Directory>
/home/itssahil/PROJECTS/Mol_Feturizer/Test_systems_manuscript/rnas/4lx5

>  <Rbt.Executable>
rbdock ($Id: //depot/dev/client3/rdock/2013.1/src/exe/rbdock.cxx#4 $)

>  <Rbt.Library>
libRbt.so (2013.1, Build901 2013/11/27)

>  <Rbt.Parameter_File>
/export/apps/rDock/src/rDock_2013.1_src/data/scripts/dock_solv.prm

>  <Rbt.Receptor>
prm/blind_docking_40.prm

>  <SCORE>
-15.0552

>  <SCORE.INTER>
-15.0552

>  <SCORE.INTER.CONST>
1

>  <SCORE.INTER.POLAR>
0

>  <SCORE.INTER.ROT>
0

>  <SCORE.INTER.SOLV>
15.6565

>  <SCORE.INTER.VDW>
-18.8556

>  <SCORE.INTER.norm>
-1.2546

>  <SCORE.INTRA>
0

>  <SCORE.INTRA.DIHEDRAL>
0

>  <SCORE.INTRA.DIHEDRAL.0>
0

>  <SCORE.INTRA.POLAR>
0

>  <SCORE.INTRA.POLAR.0>
0

>  <SCORE.INTRA.REPUL>
0

>  <SCORE.INTRA.REPUL.0>
0

>  <SCORE.INTRA.SOLV>
0

>  <SCORE.INTRA.SOLV.lig_0>
-48.1583

>  <SCORE.INTRA.VDW>
0

>  <SCORE.INTRA.VDW.0>
0

>  <SCORE.INTRA.norm>
0

>  <SCORE.RESTR>
0

>  <SCORE.RESTR.CAVITY>
0

>  <SCORE.RESTR.norm>
0

>  <SCORE.SYSTEM>
0

>  <SCORE.SYSTEM.CONST>
0

>  <SCORE.SYSTEM.DIHEDRAL>
0

>  <SCORE.SYSTEM.SOLV>
0

>  <SCORE.SYSTEM.norm>
0

>  <SCORE.heavy>
12

>  <SCORE.norm>
-1.2546

>  <RMSD>
3.040

$$$$
ligand
 OpenBabel02271912143D
libRbt.so/2013.1/901 2013/11/27
 12 13  0  0  0  0  0  0  0  0999 V2000
    4.7142   15.4133    3.9342 C   0  0  0  0  0  0  0  0  0  0  0  0
    6.0449   17.0492    2.9403 C   0  0  0  0  0  0  0  0  0  0  0  0
    4.0511   14.2651    3.8299 N   0  0  0  0  0  0  0  0  0  0  0  0
    6.6797   17.5827    1.8909 N   0  0  0  0  0  0  0  0  0  0  0  0
    5.3504   15.9072    2.8496 N   0  0  0  0  0  0  0  0  0  0  0  0
    4.7639   16.0513    5.1247 N   0  0  0  0  0  0  0  0  0  0  0  0
    6.8502   19.6052    5.4871 N   0  0  0  0  0  0  0  0  0  0  0  0
    6.1815   19.0588    6.5934 C   0  0  0  0  0  0  0  0  0  0  0  0
    5.4627   17.8482    6.4580 N   0  0  0  0  0  0  0  0  0  0  0  0
    5.4446   17.2161    5.2647 C   0  0  0  0  0  0  0  0  0  0  0  0
    6.1154   17.7415    4.1556 C   0  0  0  0  0  0  0  0  0  0  0  0
    6.8248   18.9376    4.2466 C   0  0  0  0  0  0  0  0  0  0  0  0
  1  3  1  0  0  0  0
  1  5  1  0  0  0  0
  1  6  2  0  0  0  0
  2  5  2  0  0  0  0
  2 11  1  0  0  0  0
  2  4  1  0  0  0  0
  6 10  1  0  0  0  0
  7  8  2  0  0  0  0
  7 12  1  0  0  0  0
  8  9  1  0  0  0  0
  9 10  2  0  0  0  0
 10 11  1  0  0  0  0
 11 12  2  0  0  0  0
M  END
>  <CHROM.1>
5.69309220,17.19644369,4.38835836,2.24877574,-0.96694374,-2.02409093

>  <Name>
ligand

>  <RI>
0

>  <Rbt.Current_Directory>
/home/itssahil/PROJECTS/Mol_Feturizer/Test_systems_manuscript/rnas/4lx5

>  <Rbt.Executable>
rbdock ($Id: //depot/dev/client3/rdock/2013.1/src/exe/rbdock.cxx#4 $)

>  <Rbt.Library>
libRbt.so (2013.1, Build901 2013/11/27)

>  <Rbt.Parameter_File>
/export/apps/rDock/src/rDock_2013.1_src/data/scripts/dock_solv.prm

>  <Rbt.Receptor>
prm/blind_docking_60.prm

>  <SCORE>
-15.0197

>  <SCORE.INTER>
-15.0197

>  <SCORE.INTER.CONST>
1

>  <SCORE.INTER.POLAR>
0

>  <SCORE.INTER.ROT>
0

>  <SCORE.INTER.SOLV>
15.8091

>  <SCORE.INTER.VDW>
-18.8828

>  <SCORE.INTER.norm>
-1.25164

>  <SCORE.INTRA>
0

>  <SCORE.INTRA.DIHEDRAL>
0

>  <SCORE.INTRA.DIHEDRAL.0>
0

>  <SCORE.INTRA.POLAR>
0

>  <SCORE.INTRA.POLAR.0>
0

>  <SCORE.INTRA.REPUL>
0

>  <SCORE.INTRA.REPUL.0>
0

>  <SCORE.INTRA.SOLV>
0

>  <SCORE.INTRA.SOLV.lig_0>
-48.1583

>  <SCORE.INTRA.VDW>
0

>  <SCORE.INTRA.VDW.0>
0

>  <SCORE.INTRA.norm>
0

>  <SCORE.RESTR>
0

>  <SCORE.RESTR.CAVITY>
0

>  <SCORE.RESTR.norm>
0

>  <SCORE.SYSTEM>
0

>  <SCORE.SYSTEM.CONST>
0

>  <SCORE.SYSTEM.DIHEDRAL>
0

>  <SCORE.SYSTEM.SOLV>
0

>  <SCORE.SYSTEM.norm>
0

>  <SCORE.heavy>
12

>  <SCORE.norm>
-1.25164

>  <RMSD>
3.040

$$$$
ligand
 OpenBabel02271912143D
libRbt.so/2013.1/901 2013/11/27
 12 13  0  0  0  0  0  0  0  0999 V2000
    4.6063   15.3688    3.8990 C   0  0  0  0  0  0  0  0  0  0  0  0
    5.9696   16.9534    2.8668 C   0  0  0  0  0  0  0  0  0  0  0  0
    3.9037   14.2426    3.8162 N   0  0  0  0  0  0  0  0  0  0  0  0
    6.5999   17.4589    1.8009 N   0  0  0  0  0  0  0  0  0  0  0  0
    5.2361   15.8345    2.7982 N   0  0  0  0  0  0  0  0  0  0  0  0
    4.7016   16.0122    5.0837 N   0  0  0  0  0  0  0  0  0  0  0  0
    6.9114   19.4972    5.3787 N   0  0  0  0  0  0  0  0  0  0  0  0
    6.2480   18.9803    6.5022 C   0  0  0  0  0  0  0  0  0  0  0  0
    5.4869   17.7934    6.3899 N   0  0  0  0  0  0  0  0  0  0  0  0
    5.4233   17.1547    5.2016 C   0  0  0  0  0  0  0  0  0  0  0  0
    6.0880   17.6505    4.0754 C   0  0  0  0  0  0  0  0  0  0  0  0
    6.8384   18.8230    4.1437 C   0  0  0  0  0  0  0  0  0  0  0  0
  1  3  1  0  0  0  0
  1  5  1  0  0  0  0
  1  6  2  0  0  0  0
  2  5  2  0  0  0  0
  2 11  1  0  0  0  0
  2  4  1  0  0  0  0
  6 10  1  0  0  0  0
  7  8  2  0  0  0  0
  7 12  1  0  0  0  0
  8  9  1  0  0  0  0
  9 10  2  0  0  0  0
 10 11  1  0  0  0  0
 11 12  2  0  0  0  0
M  END
>  <CHROM.1>
5.65284771,17.12130332,4.32058958,2.30522465,-0.94548777,-1.98460068

>  <Name>
ligand

>  <RI>
0

>  <Rbt.Current_Directory>
/home/itssahil/PROJECTS/Mol_Feturizer/Test_systems_manuscript/rnas/4lx5

>  <Rbt.Executable>
rbdock ($Id: //depot/dev/client3/rdock/2013.1/src/exe/rbdock.cxx#4 $)

>  <Rbt.Library>
libRbt.so (2013.1, Build901 2013/11/27)

>  <Rbt.Parameter_File>
/export/apps/rDock/src/rDock_2013.1_src/data/scripts/dock_solv.prm

>  <Rbt.Receptor>
prm/blind_docking_60.prm

>  <SCORE>
-14.8862

>  <SCORE.INTER>
-14.8862

>  <SCORE.INTER.CONST>
1

>  <SCORE.INTER.POLAR>
0

>  <SCORE.INTER.ROT>
0

>  <SCORE.INTER.SOLV>
15.1526

>  <SCORE.INTER.VDW>
-18.575

>  <SCORE.INTER.norm>
-1.24052

>  <SCORE.INTRA>
0

>  <SCORE.INTRA.DIHEDRAL>
0

>  <SCORE.INTRA.DIHEDRAL.0>
0

>  <SCORE.INTRA.POLAR>
0

>  <SCORE.INTRA.POLAR.0>
0

>  <SCORE.INTRA.REPUL>
0

>  <SCORE.INTRA.REPUL.0>
0

>  <SCORE.INTRA.SOLV>
0

>  <SCORE.INTRA.SOLV.lig_0>
-48.1583

>  <SCORE.INTRA.VDW>
0

>  <SCORE.INTRA.VDW.0>
0

>  <SCORE.INTRA.norm>
0

>  <SCORE.RESTR>
0

>  <SCORE.RESTR.CAVITY>
0

>  <SCORE.RESTR.norm>
0

>  <SCORE.SYSTEM>
0

>  <SCORE.SYSTEM.CONST>
0

>  <SCORE.SYSTEM.DIHEDRAL>
0

>  <SCORE.SYSTEM.SOLV>
0

>  <SCORE.SYSTEM.norm>
0

>  <SCORE.heavy>
12

>  <SCORE.norm>
-1.24052

>  <RMSD>
3.040

$$$$
ligand
 OpenBabel02271912143D
libRbt.so/2013.1/901 2013/11/27
 12 13  0  0  0  0  0  0  0  0999 V2000
    4.6936   15.4898    3.9341 C   0  0  0  0  0  0  0  0  0  0  0  0
    6.0912   17.0802    2.9583 C   0  0  0  0  0  0  0  0  0  0  0  0
    4.0014   14.3596    3.8235 N   0  0  0  0  0  0  0  0  0  0  0  0
    6.7640   17.5874    1.9195 N   0  0  0  0  0  0  0  0  0  0  0  0
    5.3675   15.9571    2.8605 N   0  0  0  0  0  0  0  0  0  0  0  0
    4.7343   16.1359    5.1205 N   0  0  0  0  0  0  0  0  0  0  0  0
    6.9100   19.6337    5.5033 N   0  0  0  0  0  0  0  0  0  0  0  0
    6.2018   19.1151    6.5982 C   0  0  0  0  0  0  0  0  0  0  0  0
    5.4528   17.9237    6.4557 N   0  0  0  0  0  0  0  0  0  0  0  0
    5.4439   17.2826    5.2671 C   0  0  0  0  0  0  0  0  0  0  0  0
    6.1537   17.7802    4.1695 C   0  0  0  0  0  0  0  0  0  0  0  0
    6.8939   18.9569    4.2676 C   0  0  0  0  0  0  0  0  0  0  0  0
  1  3  1  0  0  0  0
  1  5  1  0  0  0  0
  1  6  2  0  0  0  0
  2  5  2  0  0  0  0
  2 11  1  0  0  0  0
  2  4  1  0  0  0  0
  6 10  1  0  0  0  0
  7  8  2  0  0  0  0
  7 12  1  0  0  0  0
  8  9  1  0  0  0  0
  9 10  2  0  0  0  0
 10 11  1  0  0  0  0
 11 12  2  0  0  0  0
M  END
>  <CHROM.1>
5.71131983,17.24892537,4.39681148,2.23537911,-0.93208621,-2.04284896

>  <Name>
ligand

>  <RI>
0

>  <Rbt.Current_Directory>
/home/itssahil/PROJECTS/Mol_Feturizer/Test_systems_manuscript/rnas/4lx5

>  <Rbt.Executable>
rbdock ($Id: //depot/dev/client3/rdock/2013.1/src/exe/rbdock.cxx#4 $)

>  <Rbt.Library>
libRbt.so (2013.1, Build901 2013/11/27)

>  <Rbt.Parameter_File>
/export/apps/rDock/src/rDock_2013.1_src/data/scripts/dock_solv.prm

>  <Rbt.Receptor>
prm/pocket_docking_4.prm

>  <SCORE>
-15.0518

>  <SCORE.INTER>
-15.0518

>  <SCORE.INTER.CONST>
1

>  <SCORE.INTER.POLAR>
0

>  <SCORE.INTER.ROT>
0

>  <SCORE.INTER.SOLV>
15.6123

>  <SCORE.INTER.VDW>
-18.8386

>  <SCORE.INTER.norm>
-1.25432

>  <SCORE.INTRA>
0

>  <SCORE.INTRA.DIHEDRAL>
0

>  <SCORE.INTRA.DIHEDRAL.0>
0

>  <SCORE.INTRA.POLAR>
0

>  <SCORE.INTRA.POLAR.0>
0

>  <SCORE.INTRA.REPUL>
0

>  <SCORE.INTRA.REPUL.0>
0

>  <SCORE.INTRA.SOLV>
0

>  <SCORE.INTRA.SOLV.lig_0>
-48.1583

>  <SCORE.INTRA.VDW>
0

>  <SCORE.INTRA.VDW.0>
0

>  <SCORE.INTRA.norm>
0

>  <SCORE.RESTR>
0

>  <SCORE.RESTR.CAVITY>
0

>  <SCORE.RESTR.norm>
0

>  <SCORE.SYSTEM>
0

>  <SCORE.SYSTEM.CONST>
0

>  <SCORE.SYSTEM.DIHEDRAL>
0

>  <SCORE.SYSTEM.SOLV>
0

>  <SCORE.SYSTEM.norm>
0

>  <SCORE.heavy>
12

>  <SCORE.norm>
-1.25432

>  <RMSD>
3.040

$$$$
ligand
 OpenBabel02271912143D
libRbt.so/2013.1/901 2013/11/27
 12 13  0  0  0  0  0  0  0  0999 V2000
    4.7092   15.4092    3.9288 C   0  0  0  0  0  0  0  0  0  0  0  0
    6.0466   17.0446    2.9430 C   0  0  0  0  0  0  0  0  0  0  0  0
    4.0461   14.2614    3.8204 N   0  0  0  0  0  0  0  0  0  0  0  0
    6.6879   17.5779    1.8973 N   0  0  0  0  0  0  0  0  0  0  0  0
    5.3521   15.9030    2.8480 N   0  0  0  0  0  0  0  0  0  0  0  0
    4.7523   16.0470    5.1196 N   0  0  0  0  0  0  0  0  0  0  0  0
    6.8385   19.5997    5.4948 N   0  0  0  0  0  0  0  0  0  0  0  0
    6.1631   19.0535    6.5971 C   0  0  0  0  0  0  0  0  0  0  0  0
    5.4444   17.8433    6.4573 N   0  0  0  0  0  0  0  0  0  0  0  0
    5.4329   17.2114    5.2638 C   0  0  0  0  0  0  0  0  0  0  0  0
    6.1104   17.7366    4.1587 C   0  0  0  0  0  0  0  0  0  0  0  0
    6.8200   18.9322    4.2541 C   0  0  0  0  0  0  0  0  0  0  0  0
  1  3  1  0  0  0  0
  1  5  1  0  0  0  0
  1  6  2  0  0  0  0
  2  5  2  0  0  0  0
  2 11  1  0  0  0  0
  2  4  1  0  0  0  0
  6 10  1  0  0  0  0
  7  8  2  0  0  0  0
  7 12  1  0  0  0  0
  8  9  1  0  0  0  0
  9 10  2  0  0  0  0
 10 11  1  0  0  0  0
 11 12  2  0  0  0  0
M  END
>  <CHROM.1>
5.68648021,17.19173207,4.38891146,2.24001039,-0.96385447,-2.03113944

>  <Name>
ligand

>  <RI>
0

>  <Rbt.Current_Directory>
/home/itssahil/PROJECTS/Mol_Feturizer/Test_systems_manuscript/rnas/4lx5

>  <Rbt.Executable>
rbdock ($Id: //depot/dev/client3/rdock/2013.1/src/exe/rbdock.cxx#4 $)

>  <Rbt.Library>
libRbt.so (2013.1, Build901 2013/11/27)

>  <Rbt.Parameter_File>
/export/apps/rDock/src/rDock_2013.1_src/data/scripts/dock_solv.prm

>  <Rbt.Receptor>
prm/pocket_docking_4.prm

>  <SCORE>
-15.0197

>  <SCORE.INTER>
-15.0197

>  <SCORE.INTER.CONST>
1

>  <SCORE.INTER.POLAR>
0

>  <SCORE.INTER.ROT>
0

>  <SCORE.INTER.SOLV>
15.7851

>  <SCORE.INTER.VDW>
-18.8748

>  <SCORE.INTER.norm>
-1.25164

>  <SCORE.INTRA>
0

>  <SCORE.INTRA.DIHEDRAL>
0

>  <SCORE.INTRA.DIHEDRAL.0>
0

>  <SCORE.INTRA.POLAR>
0

>  <SCORE.INTRA.POLAR.0>
0

>  <SCORE.INTRA.REPUL>
0

>  <SCORE.INTRA.REPUL.0>
0

>  <SCORE.INTRA.SOLV>
0

>  <SCORE.INTRA.SOLV.lig_0>
-48.1583

>  <SCORE.INTRA.VDW>
0

>  <SCORE.INTRA.VDW.0>
0

>  <SCORE.INTRA.norm>
0

>  <SCORE.RESTR>
0

>  <SCORE.RESTR.CAVITY>
0

>  <SCORE.RESTR.norm>
0

>  <SCORE.SYSTEM>
0

>  <SCORE.SYSTEM.CONST>
0

>  <SCORE.SYSTEM.DIHEDRAL>
0

>  <SCORE.SYSTEM.SOLV>
0

>  <SCORE.SYSTEM.norm>
0

>  <SCORE.heavy>
12

>  <SCORE.norm>
-1.25164

>  <RMSD>
3.040

$$$$
ligand
 OpenBabel02271912143D
libRbt.so/2013.1/901 2013/11/27
 12 13  0  0  0  0  0  0  0  0999 V2000
    4.7123   15.4116    3.9322 C   0  0  0  0  0  0  0  0  0  0  0  0
    6.0452   17.0487    2.9432 C   0  0  0  0  0  0  0  0  0  0  0  0
    4.0492   14.2637    3.8250 N   0  0  0  0  0  0  0  0  0  0  0  0
    6.6821   17.5836    1.8957 N   0  0  0  0  0  0  0  0  0  0  0  0
    5.3506   15.9070    2.8495 N   0  0  0  0  0  0  0  0  0  0  0  0
    4.7599   16.0478    5.1237 N   0  0  0  0  0  0  0  0  0  0  0  0
    6.8464   19.6008    5.4952 N   0  0  0  0  0  0  0  0  0  0  0  0
    6.1756   19.0529    6.5994 C   0  0  0  0  0  0  0  0  0  0  0  0
    5.4567   17.8426    6.4610 N   0  0  0  0  0  0  0  0  0  0  0  0
    5.4407   17.2123    5.2667 C   0  0  0  0  0  0  0  0  0  0  0  0
    6.1136   17.7392    4.1595 C   0  0  0  0  0  0  0  0  0  0  0  0
    6.8232   18.9349    4.2537 C   0  0  0  0  0  0  0  0  0  0  0  0
  1  3  1  0  0  0  0
  1  5  1  0  0  0  0
  1  6  2  0  0  0  0
  2  5  2  0  0  0  0
  2 11  1  0  0  0  0
  2  4  1  0  0  0  0
  6 10  1  0  0  0  0
  7  8  2  0  0  0  0
  7 12  1  0  0  0  0
  8  9  1  0  0  0  0
  9 10  2  0  0  0  0
 10 11  1  0  0  0  0
 11 12  2  0  0  0  0
M  END
>  <CHROM.1>
5.69076808,17.19387061,4.39077209,2.24604068,-0.96593179,-2.02486793

>  <Name>
ligand

>  <RI>
0

>  <Rbt.Current_Directory>
/home/itssahil/PROJECTS/Mol_Feturizer/Test_systems_manuscript/rnas/4lx5

>  <Rbt.Executable>
rbdock ($Id: //depot/dev/client3/rdock/2013.1/src/exe/rbdock.cxx#4 $)

>  <Rbt.Library>
libRbt.so (2013.1, Build901 2013/11/27)

>  <Rbt.Parameter_File>
/export/apps/rDock/src/rDock_2013.1_src/data/scripts/dock_solv.prm

>  <Rbt.Receptor>
prm/pocket_docking_8.prm

>  <SCORE>
-15.0198

>  <SCORE.INTER>
-15.0198

>  <SCORE.INTER.CONST>
1

>  <SCORE.INTER.POLAR>
0

>  <SCORE.INTER.ROT>
0

>  <SCORE.INTER.SOLV>
15.7941

>  <SCORE.INTER.VDW>
-18.8779

>  <SCORE.INTER.norm>
-1.25165

>  <SCORE.INTRA>
0

>  <SCORE.INTRA.DIHEDRAL>
0

>  <SCORE.INTRA.DIHEDRAL.0>
0

>  <SCORE.INTRA.POLAR>
0

>  <SCORE.INTRA.POLAR.0>
0

>  <SCORE.INTRA.REPUL>
0

>  <SCORE.INTRA.REPUL.0>
0

>  <SCORE.INTRA.SOLV>
0

>  <SCORE.INTRA.SOLV.lig_0>
-48.1583

>  <SCORE.INTRA.VDW>
0

>  <SCORE.INTRA.VDW.0>
0

>  <SCORE.INTRA.norm>
0

>  <SCORE.RESTR>
0

>  <SCORE.RESTR.CAVITY>
0

>  <SCORE.RESTR.norm>
0

>  <SCORE.SYSTEM>
0

>  <SCORE.SYSTEM.CONST>
0

>  <SCORE.SYSTEM.DIHEDRAL>
0

>  <SCORE.SYSTEM.SOLV>
0

>  <SCORE.SYSTEM.norm>
0

>  <SCORE.heavy>
12

>  <SCORE.norm>
-1.25165

>  <RMSD>
3.040

$$$$
ligand
 OpenBabel02271912143D
libRbt.so/2013.1/901 2013/11/27
 12 13  0  0  0  0  0  0  0  0999 V2000
    4.7035   15.4208    3.9346 C   0  0  0  0  0  0  0  0  0  0  0  0
    6.0459   17.0467    2.9399 C   0  0  0  0  0  0  0  0  0  0  0  0
    4.0363   14.2748    3.8323 N   0  0  0  0  0  0  0  0  0  0  0  0
    6.6882   17.5726    1.8911 N   0  0  0  0  0  0  0  0  0  0  0  0
    5.3472   15.9071    2.8509 N   0  0  0  0  0  0  0  0  0  0  0  0
    4.7498   16.0641    5.1223 N   0  0  0  0  0  0  0  0  0  0  0  0
    6.8489   19.6112    5.4788 N   0  0  0  0  0  0  0  0  0  0  0  0
    6.1725   19.0727    6.5842 C   0  0  0  0  0  0  0  0  0  0  0  0
    5.4494   17.8644    6.4508 N   0  0  0  0  0  0  0  0  0  0  0  0
    5.4347   17.2268    5.2604 C   0  0  0  0  0  0  0  0  0  0  0  0
    6.1131   17.7443    4.1522 C   0  0  0  0  0  0  0  0  0  0  0  0
    6.8271   18.9379    4.2413 C   0  0  0  0  0  0  0  0  0  0  0  0
  1  3  1  0  0  0  0
  1  5  1  0  0  0  0
  1  6  2  0  0  0  0
  2  5  2  0  0  0  0
  2 11  1  0  0  0  0
  2  4  1  0  0  0  0
  6 10  1  0  0  0  0
  7  8  2  0  0  0  0
  7 12  1  0  0  0  0
  8  9  1  0  0  0  0
  9 10  2  0  0  0  0
 10 11  1  0  0  0  0
 11 12  2  0  0  0  0
M  END
>  <CHROM.1>
5.68745526,17.20204768,4.38539617,2.24403867,-0.96104924,-2.03264005

>  <Name>
ligand

>  <RI>
0

>  <Rbt.Current_Directory>
/home/itssahil/PROJECTS/Mol_Feturizer/Test_systems_manuscript/rnas/4lx5

>  <Rbt.Executable>
rbdock ($Id: //depot/dev/client3/rdock/2013.1/src/exe/rbdock.cxx#4 $)

>  <Rbt.Library>
libRbt.so (2013.1, Build901 2013/11/27)

>  <Rbt.Parameter_File>
/export/apps/rDock/src/rDock_2013.1_src/data/scripts/dock_solv.prm

>  <Rbt.Receptor>
prm/pocket_docking_4.prm

>  <SCORE>
-15.0134

>  <SCORE.INTER>
-15.0134

>  <SCORE.INTER.CONST>
1

>  <SCORE.INTER.POLAR>
0

>  <SCORE.INTER.ROT>
0

>  <SCORE.INTER.SOLV>
15.7522

>  <SCORE.INTER.VDW>
-18.8597

>  <SCORE.INTER.norm>
-1.25112

>  <SCORE.INTRA>
0

>  <SCORE.INTRA.DIHEDRAL>
0

>  <SCORE.INTRA.DIHEDRAL.0>
0

>  <SCORE.INTRA.POLAR>
0

>  <SCORE.INTRA.POLAR.0>
0

>  <SCORE.INTRA.REPUL>
0

>  <SCORE.INTRA.REPUL.0>
0

>  <SCORE.INTRA.SOLV>
0

>  <SCORE.INTRA.SOLV.lig_0>
-48.1583

>  <SCORE.INTRA.VDW>
0

>  <SCORE.INTRA.VDW.0>
0

>  <SCORE.INTRA.norm>
0

>  <SCORE.RESTR>
0

>  <SCORE.RESTR.CAVITY>
0

>  <SCORE.RESTR.norm>
0

>  <SCORE.SYSTEM>
0

>  <SCORE.SYSTEM.CONST>
0

>  <SCORE.SYSTEM.DIHEDRAL>
0

>  <SCORE.SYSTEM.SOLV>
0

>  <SCORE.SYSTEM.norm>
0

>  <SCORE.heavy>
12

>  <SCORE.norm>
-1.25112

>  <RMSD>
3.041

$$$$
ligand
 OpenBabel02271912143D
libRbt.so/2013.1/901 2013/11/27
 12 13  0  0  0  0  0  0  0  0999 V2000
    4.3395   15.7582    3.8363 C   0  0  0  0  0  0  0  0  0  0  0  0
    5.9780   17.1314    2.9066 C   0  0  0  0  0  0  0  0  0  0  0  0
    3.4742   14.7585    3.6926 N   0  0  0  0  0  0  0  0  0  0  0  0
    6.7265   17.5552    1.8823 N   0  0  0  0  0  0  0  0  0  0  0  0
    5.0827   16.1435    2.7759 N   0  0  0  0  0  0  0  0  0  0  0  0
    4.4810   16.3522    5.0420 N   0  0  0  0  0  0  0  0  0  0  0  0
    7.1920   19.4393    5.5272 N   0  0  0  0  0  0  0  0  0  0  0  0
    6.4065   19.0083    6.6074 C   0  0  0  0  0  0  0  0  0  0  0  0
    5.4754   17.9584    6.4301 N   0  0  0  0  0  0  0  0  0  0  0  0
    5.3661   17.3642    5.2222 C   0  0  0  0  0  0  0  0  0  0  0  0
    6.1496   17.7743    4.1387 C   0  0  0  0  0  0  0  0  0  0  0  0
    7.0699   18.8125    4.2713 C   0  0  0  0  0  0  0  0  0  0  0  0
  1  3  1  0  0  0  0
  1  5  1  0  0  0  0
  1  6  2  0  0  0  0
  2  5  2  0  0  0  0
  2 11  1  0  0  0  0
  2  4  1  0  0  0  0
  6 10  1  0  0  0  0
  7  8  2  0  0  0  0
  7 12  1  0  0  0  0
  8  9  1  0  0  0  0
  9 10  2  0  0  0  0
 10 11  1  0  0  0  0
 11 12  2  0  0  0  0
M  END
>  <CHROM.1>
5.62673221,17.31471995,4.35060958,2.33606408,-0.78371679,-1.93533705

>  <Name>
ligand

>  <RI>
0

>  <Rbt.Current_Directory>
/home/itssahil/PROJECTS/Mol_Feturizer/Test_systems_manuscript/rnas/4lx5

>  <Rbt.Executable>
rbdock ($Id: //depot/dev/client3/rdock/2013.1/src/exe/rbdock.cxx#4 $)

>  <Rbt.Library>
libRbt.so (2013.1, Build901 2013/11/27)

>  <Rbt.Parameter_File>
/export/apps/rDock/src/rDock_2013.1_src/data/scripts/dock_solv.prm

>  <Rbt.Receptor>
prm/pocket_docking_4.prm

>  <SCORE>
-14.4266

>  <SCORE.INTER>
-14.4266

>  <SCORE.INTER.CONST>
1

>  <SCORE.INTER.POLAR>
0

>  <SCORE.INTER.ROT>
0

>  <SCORE.INTER.SOLV>
13.4799

>  <SCORE.INTER.VDW>
-17.711

>  <SCORE.INTER.norm>
-1.20222

>  <SCORE.INTRA>
0

>  <SCORE.INTRA.DIHEDRAL>
0

>  <SCORE.INTRA.DIHEDRAL.0>
0

>  <SCORE.INTRA.POLAR>
0

>  <SCORE.INTRA.POLAR.0>
0

>  <SCORE.INTRA.REPUL>
0

>  <SCORE.INTRA.REPUL.0>
0

>  <SCORE.INTRA.SOLV>
0

>  <SCORE.INTRA.SOLV.lig_0>
-48.1583

>  <SCORE.INTRA.VDW>
0

>  <SCORE.INTRA.VDW.0>
0

>  <SCORE.INTRA.norm>
0

>  <SCORE.RESTR>
0

>  <SCORE.RESTR.CAVITY>
0

>  <SCORE.RESTR.norm>
0

>  <SCORE.SYSTEM>
0

>  <SCORE.SYSTEM.CONST>
0

>  <SCORE.SYSTEM.DIHEDRAL>
0

>  <SCORE.SYSTEM.SOLV>
0

>  <SCORE.SYSTEM.norm>
0

>  <SCORE.heavy>
12

>  <SCORE.norm>
-1.20222

>  <RMSD>
3.041

$$$$
ligand
 OpenBabel02271912143D
libRbt.so/2013.1/901 2013/11/27
 12 13  0  0  0  0  0  0  0  0999 V2000
    4.7065   15.4182    3.9356 C   0  0  0  0  0  0  0  0  0  0  0  0
    6.0448   17.0483    2.9424 C   0  0  0  0  0  0  0  0  0  0  0  0
    4.0388   14.2727    3.8311 N   0  0  0  0  0  0  0  0  0  0  0  0
    6.6826   17.5789    1.8932 N   0  0  0  0  0  0  0  0  0  0  0  0
    5.3457   15.9092    2.8514 N   0  0  0  0  0  0  0  0  0  0  0  0
    4.7579   16.0563    5.1260 N   0  0  0  0  0  0  0  0  0  0  0  0
    6.8587   19.6017    5.4890 N   0  0  0  0  0  0  0  0  0  0  0  0
    6.1868   19.0584    6.5949 C   0  0  0  0  0  0  0  0  0  0  0  0
    5.4631   17.8507    6.4593 N   0  0  0  0  0  0  0  0  0  0  0  0
    5.4434   17.2183    5.2662 C   0  0  0  0  0  0  0  0  0  0  0  0
    6.1172   17.7406    4.1574 C   0  0  0  0  0  0  0  0  0  0  0  0
    6.8315   18.9338    4.2487 C   0  0  0  0  0  0  0  0  0  0  0  0
  1  3  1  0  0  0  0
  1  5  1  0  0  0  0
  1  6  2  0  0  0  0
  2  5  2  0  0  0  0
  2 11  1  0  0  0  0
  2  4  1  0  0  0  0
  6 10  1  0  0  0  0
  7  8  2  0  0  0  0
  7 12  1  0  0  0  0
  8  9  1  0  0  0  0
  9 10  2  0  0  0  0
 10 11  1  0  0  0  0
 11 12  2  0  0  0  0
M  END
>  <CHROM.1>
5.69245055,17.19741500,4.39005812,2.25070504,-0.96286467,-2.02279534

>  <Name>
ligand

>  <RI>
0

>  <Rbt.Current_Directory>
/home/itssahil/PROJECTS/Mol_Feturizer/Test_systems_manuscript/rnas/4lx5

>  <Rbt.Executable>
rbdock ($Id: //depot/dev/client3/rdock/2013.1/src/exe/rbdock.cxx#4 $)

>  <Rbt.Library>
libRbt.so (2013.1, Build901 2013/11/27)

>  <Rbt.Parameter_File>
/export/apps/rDock/src/rDock_2013.1_src/data/scripts/dock_solv.prm

>  <Rbt.Receptor>
prm/pocket_docking_5.prm

>  <SCORE>
-15.0191

>  <SCORE.INTER>
-15.0191

>  <SCORE.INTER.CONST>
1

>  <SCORE.INTER.POLAR>
0

>  <SCORE.INTER.ROT>
0

>  <SCORE.INTER.SOLV>
15.7488

>  <SCORE.INTER.VDW>
-18.8623

>  <SCORE.INTER.norm>
-1.25159

>  <SCORE.INTRA>
0

>  <SCORE.INTRA.DIHEDRAL>
0

>  <SCORE.INTRA.DIHEDRAL.0>
0

>  <SCORE.INTRA.POLAR>
0

>  <SCORE.INTRA.POLAR.0>
0

>  <SCORE.INTRA.REPUL>
0

>  <SCORE.INTRA.REPUL.0>
0

>  <SCORE.INTRA.SOLV>
0

>  <SCORE.INTRA.SOLV.lig_0>
-48.1583

>  <SCORE.INTRA.VDW>
0

>  <SCORE.INTRA.VDW.0>
0

>  <SCORE.INTRA.norm>
0

>  <SCORE.RESTR>
0

>  <SCORE.RESTR.CAVITY>
0

>  <SCORE.RESTR.norm>
0

>  <SCORE.SYSTEM>
0

>  <SCORE.SYSTEM.CONST>
0

>  <SCORE.SYSTEM.DIHEDRAL>
0

>  <SCORE.SYSTEM.SOLV>
0

>  <SCORE.SYSTEM.norm>
0

>  <SCORE.heavy>
12

>  <SCORE.norm>
-1.25159

>  <RMSD>
3.041

$$$$
ligand
 OpenBabel02271912143D
libRbt.so/2013.1/901 2013/11/27
 12 13  0  0  0  0  0  0  0  0999 V2000
    4.6995   15.4226    3.9356 C   0  0  0  0  0  0  0  0  0  0  0  0
    6.0456   17.0458    2.9414 C   0  0  0  0  0  0  0  0  0  0  0  0
    4.0295   14.2784    3.8328 N   0  0  0  0  0  0  0  0  0  0  0  0
    6.6888   17.5708    1.8928 N   0  0  0  0  0  0  0  0  0  0  0  0
    5.3441   15.9079    2.8520 N   0  0  0  0  0  0  0  0  0  0  0  0
    4.7477   16.0652    5.1236 N   0  0  0  0  0  0  0  0  0  0  0  0
    6.8554   19.6070    5.4815 N   0  0  0  0  0  0  0  0  0  0  0  0
    6.1779   19.0695    6.5868 C   0  0  0  0  0  0  0  0  0  0  0  0
    5.4519   17.8631    6.4529 N   0  0  0  0  0  0  0  0  0  0  0  0
    5.4354   17.2261    5.2621 C   0  0  0  0  0  0  0  0  0  0  0  0
    6.1148   17.7426    4.1541 C   0  0  0  0  0  0  0  0  0  0  0  0
    6.8316   18.9344    4.2437 C   0  0  0  0  0  0  0  0  0  0  0  0
  1  3  1  0  0  0  0
  1  5  1  0  0  0  0
  1  6  2  0  0  0  0
  2  5  2  0  0  0  0
  2 11  1  0  0  0  0
  2  4  1  0  0  0  0
  6 10  1  0  0  0  0
  7  8  2  0  0  0  0
  7 12  1  0  0  0  0
  8  9  1  0  0  0  0
  9 10  2  0  0  0  0
 10 11  1  0  0  0  0
 11 12  2  0  0  0  0
M  END
>  <CHROM.1>
5.68787203,17.20124981,4.38709822,2.24630522,-0.95898926,-2.03023794

>  <Name>
ligand

>  <RI>
0

>  <Rbt.Current_Directory>
/home/itssahil/PROJECTS/Mol_Feturizer/Test_systems_manuscript/rnas/4lx5

>  <Rbt.Executable>
rbdock ($Id: //depot/dev/client3/rdock/2013.1/src/exe/rbdock.cxx#4 $)

>  <Rbt.Library>
libRbt.so (2013.1, Build901 2013/11/27)

>  <Rbt.Parameter_File>
/export/apps/rDock/src/rDock_2013.1_src/data/scripts/dock_solv.prm

>  <Rbt.Receptor>
prm/pocket_docking_7.prm

>  <SCORE>
-15.0154

>  <SCORE.INTER>
-15.0154

>  <SCORE.INTER.CONST>
1

>  <SCORE.INTER.POLAR>
0

>  <SCORE.INTER.ROT>
0

>  <SCORE.INTER.SOLV>
15.716

>  <SCORE.INTER.VDW>
-18.8489

>  <SCORE.INTER.norm>
-1.25128

>  <SCORE.INTRA>
0

>  <SCORE.INTRA.DIHEDRAL>
0

>  <SCORE.INTRA.DIHEDRAL.0>
0

>  <SCORE.INTRA.POLAR>
0

>  <SCORE.INTRA.POLAR.0>
0

>  <SCORE.INTRA.REPUL>
0

>  <SCORE.INTRA.REPUL.0>
0

>  <SCORE.INTRA.SOLV>
0

>  <SCORE.INTRA.SOLV.lig_0>
-48.1583

>  <SCORE.INTRA.VDW>
0

>  <SCORE.INTRA.VDW.0>
0

>  <SCORE.INTRA.norm>
0

>  <SCORE.RESTR>
0

>  <SCORE.RESTR.CAVITY>
0

>  <SCORE.RESTR.norm>
0

>  <SCORE.SYSTEM>
0

>  <SCORE.SYSTEM.CONST>
0

>  <SCORE.SYSTEM.DIHEDRAL>
0

>  <SCORE.SYSTEM.SOLV>
0

>  <SCORE.SYSTEM.norm>
0

>  <SCORE.heavy>
12

>  <SCORE.norm>
-1.25128

>  <RMSD>
3.041

$$$$
ligand
 OpenBabel02271912143D
libRbt.so/2013.1/901 2013/11/27
 12 13  0  0  0  0  0  0  0  0999 V2000
    4.6928   15.4144    3.9296 C   0  0  0  0  0  0  0  0  0  0  0  0
    6.0461   17.0390    2.9477 C   0  0  0  0  0  0  0  0  0  0  0  0
    4.0232   14.2705    3.8201 N   0  0  0  0  0  0  0  0  0  0  0  0
    6.6967   17.5658    1.9045 N   0  0  0  0  0  0  0  0  0  0  0  0
    5.3449   15.9016    2.8514 N   0  0  0  0  0  0  0  0  0  0  0  0
    4.7332   16.0546    5.1192 N   0  0  0  0  0  0  0  0  0  0  0  0
    6.8396   19.5950    5.4981 N   0  0  0  0  0  0  0  0  0  0  0  0
    6.1544   19.0557    6.5978 C   0  0  0  0  0  0  0  0  0  0  0  0
    5.4289   17.8497    6.4567 N   0  0  0  0  0  0  0  0  0  0  0  0
    5.4203   17.2151    5.2646 C   0  0  0  0  0  0  0  0  0  0  0  0
    6.1074   17.7334    4.1622 C   0  0  0  0  0  0  0  0  0  0  0  0
    6.8239   18.9248    4.2589 C   0  0  0  0  0  0  0  0  0  0  0  0
  1  3  1  0  0  0  0
  1  5  1  0  0  0  0
  1  6  2  0  0  0  0
  2  5  2  0  0  0  0
  2 11  1  0  0  0  0
  2  4  1  0  0  0  0
  6 10  1  0  0  0  0
  7  8  2  0  0  0  0
  7 12  1  0  0  0  0
  8  9  1  0  0  0  0
  9 10  2  0  0  0  0
 10 11  1  0  0  0  0
 11 12  2  0  0  0  0
M  END
>  <CHROM.1>
5.67869199,17.19181276,4.39124305,2.23601416,-0.95567424,-2.03673646

>  <Name>
ligand

>  <RI>
0

>  <Rbt.Current_Directory>
/home/itssahil/PROJECTS/Mol_Feturizer/Test_systems_manuscript/rnas/4lx5

>  <Rbt.Executable>
rbdock ($Id: //depot/dev/client3/rdock/2013.1/src/exe/rbdock.cxx#4 $)

>  <Rbt.Library>
libRbt.so (2013.1, Build901 2013/11/27)

>  <Rbt.Parameter_File>
/export/apps/rDock/src/rDock_2013.1_src/data/scripts/dock_solv.prm

>  <Rbt.Receptor>
prm/blind_docking_100.prm

>  <SCORE>
-15.0124

>  <SCORE.INTER>
-15.0124

>  <SCORE.INTER.CONST>
1

>  <SCORE.INTER.POLAR>
0

>  <SCORE.INTER.ROT>
0

>  <SCORE.INTER.SOLV>
15.677

>  <SCORE.INTER.VDW>
-18.8339

>  <SCORE.INTER.norm>
-1.25103

>  <SCORE.INTRA>
0

>  <SCORE.INTRA.DIHEDRAL>
0

>  <SCORE.INTRA.DIHEDRAL.0>
0

>  <SCORE.INTRA.POLAR>
0

>  <SCORE.INTRA.POLAR.0>
0

>  <SCORE.INTRA.REPUL>
0

>  <SCORE.INTRA.REPUL.0>
0

>  <SCORE.INTRA.SOLV>
0

>  <SCORE.INTRA.SOLV.lig_0>
-48.1583

>  <SCORE.INTRA.VDW>
0

>  <SCORE.INTRA.VDW.0>
0

>  <SCORE.INTRA.norm>
0

>  <SCORE.RESTR>
0

>  <SCORE.RESTR.CAVITY>
0

>  <SCORE.RESTR.norm>
0

>  <SCORE.SYSTEM>
0

>  <SCORE.SYSTEM.CONST>
0

>  <SCORE.SYSTEM.DIHEDRAL>
0

>  <SCORE.SYSTEM.SOLV>
0

>  <SCORE.SYSTEM.norm>
0

>  <SCORE.heavy>
12

>  <SCORE.norm>
-1.25103

>  <RMSD>
3.042

$$$$
ligand
 OpenBabel02271912143D
libRbt.so/2013.1/901 2013/11/27
 12 13  0  0  0  0  0  0  0  0999 V2000
    4.6963   15.4799    3.9439 C   0  0  0  0  0  0  0  0  0  0  0  0
    6.0746   17.0801    2.9568 C   0  0  0  0  0  0  0  0  0  0  0  0
    4.0113   14.3447    3.8389 N   0  0  0  0  0  0  0  0  0  0  0  0
    6.7352   17.5920    1.9125 N   0  0  0  0  0  0  0  0  0  0  0  0
    5.3581   15.9519    2.8648 N   0  0  0  0  0  0  0  0  0  0  0  0
    4.7421   16.1262    5.1300 N   0  0  0  0  0  0  0  0  0  0  0  0
    6.8959   19.6394    5.4951 N   0  0  0  0  0  0  0  0  0  0  0  0
    6.2003   19.1158    6.5958 C   0  0  0  0  0  0  0  0  0  0  0  0
    5.4587   17.9191    6.4594 N   0  0  0  0  0  0  0  0  0  0  0  0
    5.4447   17.2779    5.2708 C   0  0  0  0  0  0  0  0  0  0  0  0
    6.1419   17.7805    4.1675 C   0  0  0  0  0  0  0  0  0  0  0  0
    6.8745   18.9625    4.2596 C   0  0  0  0  0  0  0  0  0  0  0  0
  1  3  1  0  0  0  0
  1  5  1  0  0  0  0
  1  6  2  0  0  0  0
  2  5  2  0  0  0  0
  2 11  1  0  0  0  0
  2  4  1  0  0  0  0
  6 10  1  0  0  0  0
  7  8  2  0  0  0  0
  7 12  1  0  0  0  0
  8  9  1  0  0  0  0
  9 10  2  0  0  0  0
 10 11  1  0  0  0  0
 11 12  2  0  0  0  0
M  END
>  <CHROM.1>
5.70519586,17.24615634,4.39837551,2.24223421,-0.94211345,-2.03732349

>  <Name>
ligand

>  <RI>
0

>  <Rbt.Current_Directory>
/home/itssahil/PROJECTS/Mol_Feturizer/Test_systems_manuscript/rnas/4lx5

>  <Rbt.Executable>
rbdock ($Id: //depot/dev/client3/rdock/2013.1/src/exe/rbdock.cxx#4 $)

>  <Rbt.Library>
libRbt.so (2013.1, Build901 2013/11/27)

>  <Rbt.Parameter_File>
/export/apps/rDock/src/rDock_2013.1_src/data/scripts/dock_solv.prm

>  <Rbt.Receptor>
prm/pocket_docking_3.prm

>  <SCORE>
-15.0642

>  <SCORE.INTER>
-15.0642

>  <SCORE.INTER.CONST>
1

>  <SCORE.INTER.POLAR>
0

>  <SCORE.INTER.ROT>
0

>  <SCORE.INTER.SOLV>
15.6541

>  <SCORE.INTER.VDW>
-18.8608

>  <SCORE.INTER.norm>
-1.25535

>  <SCORE.INTRA>
0

>  <SCORE.INTRA.DIHEDRAL>
0

>  <SCORE.INTRA.DIHEDRAL.0>
0

>  <SCORE.INTRA.POLAR>
0

>  <SCORE.INTRA.POLAR.0>
0

>  <SCORE.INTRA.REPUL>
0

>  <SCORE.INTRA.REPUL.0>
0

>  <SCORE.INTRA.SOLV>
0

>  <SCORE.INTRA.SOLV.lig_0>
-48.1583

>  <SCORE.INTRA.VDW>
0

>  <SCORE.INTRA.VDW.0>
0

>  <SCORE.INTRA.norm>
0

>  <SCORE.RESTR>
0

>  <SCORE.RESTR.CAVITY>
0

>  <SCORE.RESTR.norm>
0

>  <SCORE.SYSTEM>
0

>  <SCORE.SYSTEM.CONST>
0

>  <SCORE.SYSTEM.DIHEDRAL>
0

>  <SCORE.SYSTEM.SOLV>
0

>  <SCORE.SYSTEM.norm>
0

>  <SCORE.heavy>
12

>  <SCORE.norm>
-1.25535

>  <RMSD>
3.042

$$$$
ligand
 OpenBabel02271912143D
libRbt.so/2013.1/901 2013/11/27
 12 13  0  0  0  0  0  0  0  0999 V2000
    4.7026   15.4563    3.9442 C   0  0  0  0  0  0  0  0  0  0  0  0
    6.0515   17.0772    2.9503 C   0  0  0  0  0  0  0  0  0  0  0  0
    4.0263   14.3158    3.8397 N   0  0  0  0  0  0  0  0  0  0  0  0
    6.6919   17.6038    1.9007 N   0  0  0  0  0  0  0  0  0  0  0  0
    5.3439   15.9433    2.8594 N   0  0  0  0  0  0  0  0  0  0  0  0
    4.7602   16.0932    5.1349 N   0  0  0  0  0  0  0  0  0  0  0  0
    6.8875   19.6227    5.4976 N   0  0  0  0  0  0  0  0  0  0  0  0
    6.2131   19.0837    6.6040 C   0  0  0  0  0  0  0  0  0  0  0  0
    5.4803   17.8815    6.4685 N   0  0  0  0  0  0  0  0  0  0  0  0
    5.4544   17.2500    5.2750 C   0  0  0  0  0  0  0  0  0  0  0  0
    6.1306   17.7681    4.1657 C   0  0  0  0  0  0  0  0  0  0  0  0
    6.8538   18.9559    4.2569 C   0  0  0  0  0  0  0  0  0  0  0  0
  1  3  1  0  0  0  0
  1  5  1  0  0  0  0
  1  6  2  0  0  0  0
  2  5  2  0  0  0  0
  2 11  1  0  0  0  0
  2  4  1  0  0  0  0
  6 10  1  0  0  0  0
  7  8  2  0  0  0  0
  7 12  1  0  0  0  0
  8  9  1  0  0  0  0
  9 10  2  0  0  0  0
 10 11  1  0  0  0  0
 11 12  2  0  0  0  0
M  END
>  <CHROM.1>
5.70218657,17.22789055,4.39852719,2.25830171,-0.95678679,-2.01588806

>  <Name>
ligand

>  <RI>
0

>  <Rbt.Current_Directory>
/home/itssahil/PROJECTS/Mol_Feturizer/Test_systems_manuscript/rnas/4lx5

>  <Rbt.Executable>
rbdock ($Id: //depot/dev/client3/rdock/2013.1/src/exe/rbdock.cxx#4 $)

>  <Rbt.Library>
libRbt.so (2013.1, Build901 2013/11/27)

>  <Rbt.Parameter_File>
/export/apps/rDock/src/rDock_2013.1_src/data/scripts/dock_solv.prm

>  <Rbt.Receptor>
prm/pocket_docking_6.prm

>  <SCORE>
-15.0293

>  <SCORE.INTER>
-15.0293

>  <SCORE.INTER.CONST>
1

>  <SCORE.INTER.POLAR>
0

>  <SCORE.INTER.ROT>
0

>  <SCORE.INTER.SOLV>
15.6867

>  <SCORE.INTER.VDW>
-18.8484

>  <SCORE.INTER.norm>
-1.25244

>  <SCORE.INTRA>
0

>  <SCORE.INTRA.DIHEDRAL>
0

>  <SCORE.INTRA.DIHEDRAL.0>
0

>  <SCORE.INTRA.POLAR>
0

>  <SCORE.INTRA.POLAR.0>
0

>  <SCORE.INTRA.REPUL>
0

>  <SCORE.INTRA.REPUL.0>
0

>  <SCORE.INTRA.SOLV>
0

>  <SCORE.INTRA.SOLV.lig_0>
-48.1583

>  <SCORE.INTRA.VDW>
0

>  <SCORE.INTRA.VDW.0>
0

>  <SCORE.INTRA.norm>
0

>  <SCORE.RESTR>
0

>  <SCORE.RESTR.CAVITY>
0

>  <SCORE.RESTR.norm>
0

>  <SCORE.SYSTEM>
0

>  <SCORE.SYSTEM.CONST>
0

>  <SCORE.SYSTEM.DIHEDRAL>
0

>  <SCORE.SYSTEM.SOLV>
0

>  <SCORE.SYSTEM.norm>
0

>  <SCORE.heavy>
12

>  <SCORE.norm>
-1.25244

>  <RMSD>
3.042

$$$$
ligand
 OpenBabel02271912143D
libRbt.so/2013.1/901 2013/11/27
 12 13  0  0  0  0  0  0  0  0999 V2000
    4.7176   15.4278    3.9333 C   0  0  0  0  0  0  0  0  0  0  0  0
    6.0571   17.0707    2.9629 C   0  0  0  0  0  0  0  0  0  0  0  0
    4.0570   14.2795    3.8155 N   0  0  0  0  0  0  0  0  0  0  0  0
    6.7027   17.6106    1.9234 N   0  0  0  0  0  0  0  0  0  0  0  0
    5.3650   15.9285    2.8584 N   0  0  0  0  0  0  0  0  0  0  0  0
    4.7537   16.0593    5.1277 N   0  0  0  0  0  0  0  0  0  0  0  0
    6.8321   19.6133    5.5324 N   0  0  0  0  0  0  0  0  0  0  0  0
    6.1521   19.0601    6.6283 C   0  0  0  0  0  0  0  0  0  0  0  0
    5.4361   17.8495    6.4785 N   0  0  0  0  0  0  0  0  0  0  0  0
    5.4316   17.2240    5.2816 C   0  0  0  0  0  0  0  0  0  0  0  0
    6.1137   17.7562    4.1827 C   0  0  0  0  0  0  0  0  0  0  0  0
    6.8209   18.9525    4.2880 C   0  0  0  0  0  0  0  0  0  0  0  0
  1  3  1  0  0  0  0
  1  5  1  0  0  0  0
  1  6  2  0  0  0  0
  2  5  2  0  0  0  0
  2 11  1  0  0  0  0
  2  4  1  0  0  0  0
  6 10  1  0  0  0  0
  7  8  2  0  0  0  0
  7 12  1  0  0  0  0
  8  9  1  0  0  0  0
  9 10  2  0  0  0  0
 10 11  1  0  0  0  0
 11 12  2  0  0  0  0
M  END
>  <CHROM.1>
5.68955899,17.20948415,4.40786782,2.23090927,-0.96313074,-2.03324019

>  <Name>
ligand

>  <RI>
0

>  <Rbt.Current_Directory>
/home/itssahil/PROJECTS/Mol_Feturizer/Test_systems_manuscript/rnas/4lx5

>  <Rbt.Executable>
rbdock ($Id: //depot/dev/client3/rdock/2013.1/src/exe/rbdock.cxx#4 $)

>  <Rbt.Library>
libRbt.so (2013.1, Build901 2013/11/27)

>  <Rbt.Parameter_File>
/export/apps/rDock/src/rDock_2013.1_src/data/scripts/dock_solv.prm

>  <Rbt.Receptor>
prm/pocket_docking_7.prm

>  <SCORE>
-15.0232

>  <SCORE.INTER>
-15.0232

>  <SCORE.INTER.CONST>
1

>  <SCORE.INTER.POLAR>
0

>  <SCORE.INTER.ROT>
0

>  <SCORE.INTER.SOLV>
15.8232

>  <SCORE.INTER.VDW>
-18.8899

>  <SCORE.INTER.norm>
-1.25193

>  <SCORE.INTRA>
0

>  <SCORE.INTRA.DIHEDRAL>
0

>  <SCORE.INTRA.DIHEDRAL.0>
0

>  <SCORE.INTRA.POLAR>
0

>  <SCORE.INTRA.POLAR.0>
0

>  <SCORE.INTRA.REPUL>
0

>  <SCORE.INTRA.REPUL.0>
0

>  <SCORE.INTRA.SOLV>
0

>  <SCORE.INTRA.SOLV.lig_0>
-48.1583

>  <SCORE.INTRA.VDW>
0

>  <SCORE.INTRA.VDW.0>
0

>  <SCORE.INTRA.norm>
0

>  <SCORE.RESTR>
0

>  <SCORE.RESTR.CAVITY>
0

>  <SCORE.RESTR.norm>
0

>  <SCORE.SYSTEM>
0

>  <SCORE.SYSTEM.CONST>
0

>  <SCORE.SYSTEM.DIHEDRAL>
0

>  <SCORE.SYSTEM.SOLV>
0

>  <SCORE.SYSTEM.norm>
0

>  <SCORE.heavy>
12

>  <SCORE.norm>
-1.25193

>  <RMSD>
3.042

$$$$
ligand
 OpenBabel02271912143D
libRbt.so/2013.1/901 2013/11/27
 12 13  0  0  0  0  0  0  0  0999 V2000
    4.6972   15.3829    3.9406 C   0  0  0  0  0  0  0  0  0  0  0  0
    6.0221   17.0122    2.9282 C   0  0  0  0  0  0  0  0  0  0  0  0
    4.0349   14.2332    3.8482 N   0  0  0  0  0  0  0  0  0  0  0  0
    6.6519   17.5379    1.8719 N   0  0  0  0  0  0  0  0  0  0  0  0
    5.3284   15.8688    2.8495 N   0  0  0  0  0  0  0  0  0  0  0  0
    4.7513   16.0303    5.1258 N   0  0  0  0  0  0  0  0  0  0  0  0
    6.8356   19.5890    5.4512 N   0  0  0  0  0  0  0  0  0  0  0  0
    6.1721   19.0508    6.5646 C   0  0  0  0  0  0  0  0  0  0  0  0
    5.4540   17.8384    6.4419 N   0  0  0  0  0  0  0  0  0  0  0  0
    5.4315   17.1969    5.2537 C   0  0  0  0  0  0  0  0  0  0  0  0
    6.0970   17.7141    4.1376 C   0  0  0  0  0  0  0  0  0  0  0  0
    6.8057   18.9116    4.2162 C   0  0  0  0  0  0  0  0  0  0  0  0
  1  3  1  0  0  0  0
  1  5  1  0  0  0  0
  1  6  2  0  0  0  0
  2  5  2  0  0  0  0
  2 11  1  0  0  0  0
  2  4  1  0  0  0  0
  6 10  1  0  0  0  0
  7  8  2  0  0  0  0
  7 12  1  0  0  0  0
  8  9  1  0  0  0  0
  9 10  2  0  0  0  0
 10 11  1  0  0  0  0
 11 12  2  0  0  0  0
M  END
>  <CHROM.1>
5.67625871,17.17051468,4.37649432,2.25470654,-0.96968820,-2.02713301

>  <Name>
ligand

>  <RI>
0

>  <Rbt.Current_Directory>
/home/itssahil/PROJECTS/Mol_Feturizer/Test_systems_manuscript/rnas/4lx5

>  <Rbt.Executable>
rbdock ($Id: //depot/dev/client3/rdock/2013.1/src/exe/rbdock.cxx#4 $)

>  <Rbt.Library>
libRbt.so (2013.1, Build901 2013/11/27)

>  <Rbt.Parameter_File>
/export/apps/rDock/src/rDock_2013.1_src/data/scripts/dock_solv.prm

>  <Rbt.Receptor>
prm/blind_docking_40.prm

>  <SCORE>
-15.0045

>  <SCORE.INTER>
-15.0045

>  <SCORE.INTER.CONST>
1

>  <SCORE.INTER.POLAR>
0

>  <SCORE.INTER.ROT>
0

>  <SCORE.INTER.SOLV>
15.7335

>  <SCORE.INTER.VDW>
-18.8475

>  <SCORE.INTER.norm>
-1.25038

>  <SCORE.INTRA>
0

>  <SCORE.INTRA.DIHEDRAL>
0

>  <SCORE.INTRA.DIHEDRAL.0>
0

>  <SCORE.INTRA.POLAR>
0

>  <SCORE.INTRA.POLAR.0>
0

>  <SCORE.INTRA.REPUL>
0

>  <SCORE.INTRA.REPUL.0>
0

>  <SCORE.INTRA.SOLV>
0

>  <SCORE.INTRA.SOLV.lig_0>
-48.1583

>  <SCORE.INTRA.VDW>
0

>  <SCORE.INTRA.VDW.0>
0

>  <SCORE.INTRA.norm>
0

>  <SCORE.RESTR>
0

>  <SCORE.RESTR.CAVITY>
0

>  <SCORE.RESTR.norm>
0

>  <SCORE.SYSTEM>
0

>  <SCORE.SYSTEM.CONST>
0

>  <SCORE.SYSTEM.DIHEDRAL>
0

>  <SCORE.SYSTEM.SOLV>
0

>  <SCORE.SYSTEM.norm>
0

>  <SCORE.heavy>
12

>  <SCORE.norm>
-1.25038

>  <RMSD>
3.043

$$$$
ligand
 OpenBabel02271912143D
libRbt.so/2013.1/901 2013/11/27
 12 13  0  0  0  0  0  0  0  0999 V2000
    4.6903   15.4222    3.9359 C   0  0  0  0  0  0  0  0  0  0  0  0
    6.0463   17.0406    2.9474 C   0  0  0  0  0  0  0  0  0  0  0  0
    4.0135   14.2823    3.8292 N   0  0  0  0  0  0  0  0  0  0  0  0
    6.6929   17.5653    1.9007 N   0  0  0  0  0  0  0  0  0  0  0  0
    5.3380   15.9073    2.8541 N   0  0  0  0  0  0  0  0  0  0  0  0
    4.7422   16.0604    5.1262 N   0  0  0  0  0  0  0  0  0  0  0  0
    6.8712   19.5883    5.4962 N   0  0  0  0  0  0  0  0  0  0  0  0
    6.1903   19.0512    6.5996 C   0  0  0  0  0  0  0  0  0  0  0  0
    5.4570   17.8495    6.4616 N   0  0  0  0  0  0  0  0  0  0  0  0
    5.4368   17.2168    5.2687 C   0  0  0  0  0  0  0  0  0  0  0  0
    6.1195   17.7329    4.1624 C   0  0  0  0  0  0  0  0  0  0  0  0
    6.8435   18.9200    4.2561 C   0  0  0  0  0  0  0  0  0  0  0  0
  1  3  1  0  0  0  0
  1  5  1  0  0  0  0
  1  6  2  0  0  0  0
  2  5  2  0  0  0  0
  2 11  1  0  0  0  0
  2  4  1  0  0  0  0
  6 10  1  0  0  0  0
  7  8  2  0  0  0  0
  7 12  1  0  0  0  0
  8  9  1  0  0  0  0
  9 10  2  0  0  0  0
 10 11  1  0  0  0  0
 11 12  2  0  0  0  0
M  END
>  <CHROM.1>
5.68931385,17.19333031,4.39357305,2.25068296,-0.95353639,-2.02327560

>  <Name>
ligand

>  <RI>
0

>  <Rbt.Current_Directory>
/home/itssahil/PROJECTS/Mol_Feturizer/Test_systems_manuscript/rnas/4lx5

>  <Rbt.Executable>
rbdock ($Id: //depot/dev/client3/rdock/2013.1/src/exe/rbdock.cxx#4 $)

>  <Rbt.Library>
libRbt.so (2013.1, Build901 2013/11/27)

>  <Rbt.Parameter_File>
/export/apps/rDock/src/rDock_2013.1_src/data/scripts/dock_solv.prm

>  <Rbt.Receptor>
prm/blind_docking_60.prm

>  <SCORE>
-15.0168

>  <SCORE.INTER>
-15.0168

>  <SCORE.INTER.CONST>
1

>  <SCORE.INTER.POLAR>
0

>  <SCORE.INTER.ROT>
0

>  <SCORE.INTER.SOLV>
15.6247

>  <SCORE.INTER.VDW>
-18.8195

>  <SCORE.INTER.norm>
-1.2514

>  <SCORE.INTRA>
0

>  <SCORE.INTRA.DIHEDRAL>
0

>  <SCORE.INTRA.DIHEDRAL.0>
0

>  <SCORE.INTRA.POLAR>
0

>  <SCORE.INTRA.POLAR.0>
0

>  <SCORE.INTRA.REPUL>
0

>  <SCORE.INTRA.REPUL.0>
0

>  <SCORE.INTRA.SOLV>
0

>  <SCORE.INTRA.SOLV.lig_0>
-48.1583

>  <SCORE.INTRA.VDW>
0

>  <SCORE.INTRA.VDW.0>
0

>  <SCORE.INTRA.norm>
0

>  <SCORE.RESTR>
0

>  <SCORE.RESTR.CAVITY>
0

>  <SCORE.RESTR.norm>
0

>  <SCORE.SYSTEM>
0

>  <SCORE.SYSTEM.CONST>
0

>  <SCORE.SYSTEM.DIHEDRAL>
0

>  <SCORE.SYSTEM.SOLV>
0

>  <SCORE.SYSTEM.norm>
0

>  <SCORE.heavy>
12

>  <SCORE.norm>
-1.2514

>  <RMSD>
3.043

$$$$
ligand
 OpenBabel02271912143D
libRbt.so/2013.1/901 2013/11/27
 12 13  0  0  0  0  0  0  0  0999 V2000
    4.7028   15.4490    3.9404 C   0  0  0  0  0  0  0  0  0  0  0  0
    6.0487   17.0792    2.9575 C   0  0  0  0  0  0  0  0  0  0  0  0
    4.0303   14.3071    3.8287 N   0  0  0  0  0  0  0  0  0  0  0  0
    6.6895   17.6132    1.9119 N   0  0  0  0  0  0  0  0  0  0  0  0
    5.3448   15.9436    2.8594 N   0  0  0  0  0  0  0  0  0  0  0  0
    4.7563   16.0798    5.1345 N   0  0  0  0  0  0  0  0  0  0  0  0
    6.8721   19.6139    5.5197 N   0  0  0  0  0  0  0  0  0  0  0  0
    6.1973   19.0670    6.6220 C   0  0  0  0  0  0  0  0  0  0  0  0
    5.4684   17.8633    6.4789 N   0  0  0  0  0  0  0  0  0  0  0  0
    5.4467   17.2381    5.2820 C   0  0  0  0  0  0  0  0  0  0  0  0
    6.1234   17.7640    4.1767 C   0  0  0  0  0  0  0  0  0  0  0  0
    6.8428   18.9535    4.2755 C   0  0  0  0  0  0  0  0  0  0  0  0
  1  3  1  0  0  0  0
  1  5  1  0  0  0  0
  1  6  2  0  0  0  0
  2  5  2  0  0  0  0
  2 11  1  0  0  0  0
  2  4  1  0  0  0  0
  6 10  1  0  0  0  0
  7  8  2  0  0  0  0
  7 12  1  0  0  0  0
  8  9  1  0  0  0  0
  9 10  2  0  0  0  0
 10 11  1  0  0  0  0
 11 12  2  0  0  0  0
M  END
>  <CHROM.1>
5.69619701,17.22123067,4.40587897,2.25302685,-0.95872025,-2.01498617

>  <Name>
ligand

>  <RI>
0

>  <Rbt.Current_Directory>
/home/itssahil/PROJECTS/Mol_Feturizer/Test_systems_manuscript/rnas/4lx5

>  <Rbt.Executable>
rbdock ($Id: //depot/dev/client3/rdock/2013.1/src/exe/rbdock.cxx#4 $)

>  <Rbt.Library>
libRbt.so (2013.1, Build901 2013/11/27)

>  <Rbt.Parameter_File>
/export/apps/rDock/src/rDock_2013.1_src/data/scripts/dock_solv.prm

>  <Rbt.Receptor>
prm/blind_docking_80.prm

>  <SCORE>
-15.0287

>  <SCORE.INTER>
-15.0287

>  <SCORE.INTER.CONST>
1

>  <SCORE.INTER.POLAR>
0

>  <SCORE.INTER.ROT>
0

>  <SCORE.INTER.SOLV>
15.6911

>  <SCORE.INTER.VDW>
-18.8495

>  <SCORE.INTER.norm>
-1.25239

>  <SCORE.INTRA>
0

>  <SCORE.INTRA.DIHEDRAL>
0

>  <SCORE.INTRA.DIHEDRAL.0>
0

>  <SCORE.INTRA.POLAR>
0

>  <SCORE.INTRA.POLAR.0>
0

>  <SCORE.INTRA.REPUL>
0

>  <SCORE.INTRA.REPUL.0>
0

>  <SCORE.INTRA.SOLV>
0

>  <SCORE.INTRA.SOLV.lig_0>
-48.1583

>  <SCORE.INTRA.VDW>
0

>  <SCORE.INTRA.VDW.0>
0

>  <SCORE.INTRA.norm>
0

>  <SCORE.RESTR>
0

>  <SCORE.RESTR.CAVITY>
0

>  <SCORE.RESTR.norm>
0

>  <SCORE.SYSTEM>
0

>  <SCORE.SYSTEM.CONST>
0

>  <SCORE.SYSTEM.DIHEDRAL>
0

>  <SCORE.SYSTEM.SOLV>
0

>  <SCORE.SYSTEM.norm>
0

>  <SCORE.heavy>
12

>  <SCORE.norm>
-1.25239

>  <RMSD>
3.043

$$$$
ligand
 OpenBabel02271912143D
libRbt.so/2013.1/901 2013/11/27
 12 13  0  0  0  0  0  0  0  0999 V2000
    4.7055   15.4485    3.9485 C   0  0  0  0  0  0  0  0  0  0  0  0
    6.0426   17.0774    2.9517 C   0  0  0  0  0  0  0  0  0  0  0  0
    4.0342   14.3050    3.8450 N   0  0  0  0  0  0  0  0  0  0  0  0
    6.6761   17.6087    1.9003 N   0  0  0  0  0  0  0  0  0  0  0  0
    5.3400   15.9403    2.8619 N   0  0  0  0  0  0  0  0  0  0  0  0
    4.7651   16.0837    5.1400 N   0  0  0  0  0  0  0  0  0  0  0  0
    6.8771   19.6227    5.4997 N   0  0  0  0  0  0  0  0  0  0  0  0
    6.2099   19.0787    6.6080 C   0  0  0  0  0  0  0  0  0  0  0  0
    5.4823   17.8732    6.4736 N   0  0  0  0  0  0  0  0  0  0  0  0
    5.4544   17.2436    5.2791 C   0  0  0  0  0  0  0  0  0  0  0  0
    6.1235   17.7667    4.1679 C   0  0  0  0  0  0  0  0  0  0  0  0
    6.8414   18.9578    4.2580 C   0  0  0  0  0  0  0  0  0  0  0  0
  1  3  1  0  0  0  0
  1  5  1  0  0  0  0
  1  6  2  0  0  0  0
  2  5  2  0  0  0  0
  2 11  1  0  0  0  0
  2  4  1  0  0  0  0
  6 10  1  0  0  0  0
  7  8  2  0  0  0  0
  7 12  1  0  0  0  0
  8  9  1  0  0  0  0
  9 10  2  0  0  0  0
 10 11  1  0  0  0  0
 11 12  2  0  0  0  0
M  END
>  <CHROM.1>
5.69860945,17.22405652,4.40160401,2.26131862,-0.96287112,-2.01178569

>  <Name>
ligand

>  <RI>
0

>  <Rbt.Current_Directory>
/home/itssahil/PROJECTS/Mol_Feturizer/Test_systems_manuscript/rnas/4lx5

>  <Rbt.Executable>
rbdock ($Id: //depot/dev/client3/rdock/2013.1/src/exe/rbdock.cxx#4 $)

>  <Rbt.Library>
libRbt.so (2013.1, Build901 2013/11/27)

>  <Rbt.Parameter_File>
/export/apps/rDock/src/rDock_2013.1_src/data/scripts/dock_solv.prm

>  <Rbt.Receptor>
prm/pocket_docking_4.prm

>  <SCORE>
-15.0296

>  <SCORE.INTER>
-15.0296

>  <SCORE.INTER.CONST>
1

>  <SCORE.INTER.POLAR>
0

>  <SCORE.INTER.ROT>
0

>  <SCORE.INTER.SOLV>
15.7227

>  <SCORE.INTER.VDW>
-18.8607

>  <SCORE.INTER.norm>
-1.25247

>  <SCORE.INTRA>
0

>  <SCORE.INTRA.DIHEDRAL>
0

>  <SCORE.INTRA.DIHEDRAL.0>
0

>  <SCORE.INTRA.POLAR>
0

>  <SCORE.INTRA.POLAR.0>
0

>  <SCORE.INTRA.REPUL>
0

>  <SCORE.INTRA.REPUL.0>
0

>  <SCORE.INTRA.SOLV>
0

>  <SCORE.INTRA.SOLV.lig_0>
-48.1583

>  <SCORE.INTRA.VDW>
0

>  <SCORE.INTRA.VDW.0>
0

>  <SCORE.INTRA.norm>
0

>  <SCORE.RESTR>
0

>  <SCORE.RESTR.CAVITY>
0

>  <SCORE.RESTR.norm>
0

>  <SCORE.SYSTEM>
0

>  <SCORE.SYSTEM.CONST>
0

>  <SCORE.SYSTEM.DIHEDRAL>
0

>  <SCORE.SYSTEM.SOLV>
0

>  <SCORE.SYSTEM.norm>
0

>  <SCORE.heavy>
12

>  <SCORE.norm>
-1.25247

>  <RMSD>
3.043

$$$$
ligand
 OpenBabel02271912143D
libRbt.so/2013.1/901 2013/11/27
 12 13  0  0  0  0  0  0  0  0999 V2000
    4.6950   15.4605    3.9407 C   0  0  0  0  0  0  0  0  0  0  0  0
    6.0529   17.0795    2.9559 C   0  0  0  0  0  0  0  0  0  0  0  0
    4.0182   14.3208    3.8319 N   0  0  0  0  0  0  0  0  0  0  0  0
    6.7015   17.6048    1.9108 N   0  0  0  0  0  0  0  0  0  0  0  0
    5.3447   15.9463    2.8605 N   0  0  0  0  0  0  0  0  0  0  0  0
    4.7448   16.0979    5.1316 N   0  0  0  0  0  0  0  0  0  0  0  0
    6.8735   19.6251    5.5082 N   0  0  0  0  0  0  0  0  0  0  0  0
    6.1905   19.0873    6.6099 C   0  0  0  0  0  0  0  0  0  0  0  0
    5.4574   17.8859    6.4696 N   0  0  0  0  0  0  0  0  0  0  0  0
    5.4393   17.2540    5.2762 C   0  0  0  0  0  0  0  0  0  0  0  0
    6.1241   17.7708    4.1716 C   0  0  0  0  0  0  0  0  0  0  0  0
    6.8480   18.9578    4.2675 C   0  0  0  0  0  0  0  0  0  0  0  0
  1  3  1  0  0  0  0
  1  5  1  0  0  0  0
  1  6  2  0  0  0  0
  2  5  2  0  0  0  0
  2 11  1  0  0  0  0
  2  4  1  0  0  0  0
  6 10  1  0  0  0  0
  7  8  2  0  0  0  0
  7 12  1  0  0  0  0
  8  9  1  0  0  0  0
  9 10  2  0  0  0  0
 10 11  1  0  0  0  0
 11 12  2  0  0  0  0
M  END
>  <CHROM.1>
5.69336668,17.23116609,4.40155087,2.24794560,-0.95261971,-2.02476077

>  <Name>
ligand

>  <RI>
0

>  <Rbt.Current_Directory>
/home/itssahil/PROJECTS/Mol_Feturizer/Test_systems_manuscript/rnas/4lx5

>  <Rbt.Executable>
rbdock ($Id: //depot/dev/client3/rdock/2013.1/src/exe/rbdock.cxx#4 $)

>  <Rbt.Library>
libRbt.so (2013.1, Build901 2013/11/27)

>  <Rbt.Parameter_File>
/export/apps/rDock/src/rDock_2013.1_src/data/scripts/dock_solv.prm

>  <Rbt.Receptor>
prm/pocket_docking_5.prm

>  <SCORE>
-15.0254

>  <SCORE.INTER>
-15.0254

>  <SCORE.INTER.CONST>
1

>  <SCORE.INTER.POLAR>
0

>  <SCORE.INTER.ROT>
0

>  <SCORE.INTER.SOLV>
15.6453

>  <SCORE.INTER.VDW>
-18.832

>  <SCORE.INTER.norm>
-1.25212

>  <SCORE.INTRA>
0

>  <SCORE.INTRA.DIHEDRAL>
0

>  <SCORE.INTRA.DIHEDRAL.0>
0

>  <SCORE.INTRA.POLAR>
0

>  <SCORE.INTRA.POLAR.0>
0

>  <SCORE.INTRA.REPUL>
0

>  <SCORE.INTRA.REPUL.0>
0

>  <SCORE.INTRA.SOLV>
0

>  <SCORE.INTRA.SOLV.lig_0>
-48.1583

>  <SCORE.INTRA.VDW>
0

>  <SCORE.INTRA.VDW.0>
0

>  <SCORE.INTRA.norm>
0

>  <SCORE.RESTR>
0

>  <SCORE.RESTR.CAVITY>
0

>  <SCORE.RESTR.norm>
0

>  <SCORE.SYSTEM>
0

>  <SCORE.SYSTEM.CONST>
0

>  <SCORE.SYSTEM.DIHEDRAL>
0

>  <SCORE.SYSTEM.SOLV>
0

>  <SCORE.SYSTEM.norm>
0

>  <SCORE.heavy>
12

>  <SCORE.norm>
-1.25212

>  <RMSD>
3.043

$$$$
ligand
 OpenBabel02271912143D
libRbt.so/2013.1/901 2013/11/27
 12 13  0  0  0  0  0  0  0  0999 V2000
    4.6843   15.4802    3.9500 C   0  0  0  0  0  0  0  0  0  0  0  0
    6.0577   17.0776    2.9516 C   0  0  0  0  0  0  0  0  0  0  0  0
    3.9972   14.3458    3.8510 N   0  0  0  0  0  0  0  0  0  0  0  0
    6.7118   17.5875    1.9022 N   0  0  0  0  0  0  0  0  0  0  0  0
    5.3392   15.9502    2.8658 N   0  0  0  0  0  0  0  0  0  0  0  0
    4.7391   16.1278    5.1350 N   0  0  0  0  0  0  0  0  0  0  0  0
    6.8998   19.6387    5.4812 N   0  0  0  0  0  0  0  0  0  0  0  0
    6.2112   19.1172    6.5873 C   0  0  0  0  0  0  0  0  0  0  0  0
    5.4671   17.9213    6.4574 N   0  0  0  0  0  0  0  0  0  0  0  0
    5.4441   17.2788    5.2697 C   0  0  0  0  0  0  0  0  0  0  0  0
    6.1343   17.7793    4.1610 C   0  0  0  0  0  0  0  0  0  0  0  0
    6.8690   18.9605    4.2467 C   0  0  0  0  0  0  0  0  0  0  0  0
  1  3  1  0  0  0  0
  1  5  1  0  0  0  0
  1  6  2  0  0  0  0
  2  5  2  0  0  0  0
  2 11  1  0  0  0  0
  2  4  1  0  0  0  0
  6 10  1  0  0  0  0
  7  8  2  0  0  0  0
  7 12  1  0  0  0  0
  8  9  1  0  0  0  0
  9 10  2  0  0  0  0
 10 11  1  0  0  0  0
 11 12  2  0  0  0  0
M  END
>  <CHROM.1>
5.69855364,17.24573308,4.39549334,2.25372666,-0.94408219,-2.02914211

>  <Name>
ligand

>  <RI>
0

>  <Rbt.Current_Directory>
/home/itssahil/PROJECTS/Mol_Feturizer/Test_systems_manuscript/rnas/4lx5

>  <Rbt.Executable>
rbdock ($Id: //depot/dev/client3/rdock/2013.1/src/exe/rbdock.cxx#4 $)

>  <Rbt.Library>
libRbt.so (2013.1, Build901 2013/11/27)

>  <Rbt.Parameter_File>
/export/apps/rDock/src/rDock_2013.1_src/data/scripts/dock_solv.prm

>  <Rbt.Receptor>
prm/pocket_docking_7.prm

>  <SCORE>
-15.0721

>  <SCORE.INTER>
-15.0721

>  <SCORE.INTER.CONST>
1

>  <SCORE.INTER.POLAR>
0

>  <SCORE.INTER.ROT>
0

>  <SCORE.INTER.SOLV>
15.5756

>  <SCORE.INTER.VDW>
-18.84

>  <SCORE.INTER.norm>
-1.25601

>  <SCORE.INTRA>
0

>  <SCORE.INTRA.DIHEDRAL>
0

>  <SCORE.INTRA.DIHEDRAL.0>
0

>  <SCORE.INTRA.POLAR>
0

>  <SCORE.INTRA.POLAR.0>
0

>  <SCORE.INTRA.REPUL>
0

>  <SCORE.INTRA.REPUL.0>
0

>  <SCORE.INTRA.SOLV>
0

>  <SCORE.INTRA.SOLV.lig_0>
-48.1583

>  <SCORE.INTRA.VDW>
0

>  <SCORE.INTRA.VDW.0>
0

>  <SCORE.INTRA.norm>
0

>  <SCORE.RESTR>
0

>  <SCORE.RESTR.CAVITY>
0

>  <SCORE.RESTR.norm>
0

>  <SCORE.SYSTEM>
0

>  <SCORE.SYSTEM.CONST>
0

>  <SCORE.SYSTEM.DIHEDRAL>
0

>  <SCORE.SYSTEM.SOLV>
0

>  <SCORE.SYSTEM.norm>
0

>  <SCORE.heavy>
12

>  <SCORE.norm>
-1.25601

>  <RMSD>
3.044

$$$$
ligand
 OpenBabel02271912143D
libRbt.so/2013.1/901 2013/11/27
 12 13  0  0  0  0  0  0  0  0999 V2000
    4.6924   15.4764    3.9528 C   0  0  0  0  0  0  0  0  0  0  0  0
    6.0559   17.0793    2.9495 C   0  0  0  0  0  0  0  0  0  0  0  0
    4.0080   14.3401    3.8556 N   0  0  0  0  0  0  0  0  0  0  0  0
    6.7029   17.5927    1.8975 N   0  0  0  0  0  0  0  0  0  0  0  0
    5.3402   15.9500    2.8659 N   0  0  0  0  0  0  0  0  0  0  0  0
    4.7516   16.1224    5.1385 N   0  0  0  0  0  0  0  0  0  0  0  0
    6.9039   19.6390    5.4787 N   0  0  0  0  0  0  0  0  0  0  0  0
    6.2227   19.1138    6.5876 C   0  0  0  0  0  0  0  0  0  0  0  0
    5.4814   17.9159    6.4597 N   0  0  0  0  0  0  0  0  0  0  0  0
    5.4539   17.2752    5.2712 C   0  0  0  0  0  0  0  0  0  0  0  0
    6.1368   17.7794    4.1596 C   0  0  0  0  0  0  0  0  0  0  0  0
    6.8686   18.9625    4.2433 C   0  0  0  0  0  0  0  0  0  0  0  0
  1  3  1  0  0  0  0
  1  5  1  0  0  0  0
  1  6  2  0  0  0  0
  2  5  2  0  0  0  0
  2 11  1  0  0  0  0
  2  4  1  0  0  0  0
  6 10  1  0  0  0  0
  7  8  2  0  0  0  0
  7 12  1  0  0  0  0
  8  9  1  0  0  0  0
  9 10  2  0  0  0  0
 10 11  1  0  0  0  0
 11 12  2  0  0  0  0
M  END
>  <CHROM.1>
5.70385757,17.24417923,4.39559708,2.25967859,-0.94900455,-2.02277805

>  <Name>
ligand

>  <RI>
0

>  <Rbt.Current_Directory>
/home/itssahil/PROJECTS/Mol_Feturizer/Test_systems_manuscript/rnas/4lx5

>  <Rbt.Executable>
rbdock ($Id: //depot/dev/client3/rdock/2013.1/src/exe/rbdock.cxx#4 $)

>  <Rbt.Library>
libRbt.so (2013.1, Build901 2013/11/27)

>  <Rbt.Parameter_File>
/export/apps/rDock/src/rDock_2013.1_src/data/scripts/dock_solv.prm

>  <Rbt.Receptor>
prm/pocket_docking_8.prm

>  <SCORE>
-15.0772

>  <SCORE.INTER>
-15.0772

>  <SCORE.INTER.CONST>
1

>  <SCORE.INTER.POLAR>
0

>  <SCORE.INTER.ROT>
0

>  <SCORE.INTER.SOLV>
15.6252

>  <SCORE.INTER.VDW>
-18.8598

>  <SCORE.INTER.norm>
-1.25643

>  <SCORE.INTRA>
0

>  <SCORE.INTRA.DIHEDRAL>
0

>  <SCORE.INTRA.DIHEDRAL.0>
0

>  <SCORE.INTRA.POLAR>
0

>  <SCORE.INTRA.POLAR.0>
0

>  <SCORE.INTRA.REPUL>
0

>  <SCORE.INTRA.REPUL.0>
0

>  <SCORE.INTRA.SOLV>
0

>  <SCORE.INTRA.SOLV.lig_0>
-48.1583

>  <SCORE.INTRA.VDW>
0

>  <SCORE.INTRA.VDW.0>
0

>  <SCORE.INTRA.norm>
0

>  <SCORE.RESTR>
0

>  <SCORE.RESTR.CAVITY>
0

>  <SCORE.RESTR.norm>
0

>  <SCORE.SYSTEM>
0

>  <SCORE.SYSTEM.CONST>
0

>  <SCORE.SYSTEM.DIHEDRAL>
0

>  <SCORE.SYSTEM.SOLV>
0

>  <SCORE.SYSTEM.norm>
0

>  <SCORE.heavy>
12

>  <SCORE.norm>
-1.25643

>  <RMSD>
3.044

$$$$
ligand
 OpenBabel02271912143D
libRbt.so/2013.1/901 2013/11/27
 12 13  0  0  0  0  0  0  0  0999 V2000
    4.6892   15.4745    3.9490 C   0  0  0  0  0  0  0  0  0  0  0  0
    6.0534   17.0779    2.9477 C   0  0  0  0  0  0  0  0  0  0  0  0
    4.0061   14.3375    3.8512 N   0  0  0  0  0  0  0  0  0  0  0  0
    6.7024   17.5911    1.8967 N   0  0  0  0  0  0  0  0  0  0  0  0
    5.3390   15.9478    2.8633 N   0  0  0  0  0  0  0  0  0  0  0  0
    4.7450   16.1214    5.1343 N   0  0  0  0  0  0  0  0  0  0  0  0
    6.8931   19.6404    5.4767 N   0  0  0  0  0  0  0  0  0  0  0  0
    6.2098   19.1155    6.5844 C   0  0  0  0  0  0  0  0  0  0  0  0
    5.4700   17.9168    6.4559 N   0  0  0  0  0  0  0  0  0  0  0  0
    5.4459   17.2751    5.2678 C   0  0  0  0  0  0  0  0  0  0  0  0
    6.1309   17.7790    4.1574 C   0  0  0  0  0  0  0  0  0  0  0  0
    6.8613   18.9629    4.2418 C   0  0  0  0  0  0  0  0  0  0  0  0
  1  3  1  0  0  0  0
  1  5  1  0  0  0  0
  1  6  2  0  0  0  0
  2  5  2  0  0  0  0
  2 11  1  0  0  0  0
  2  4  1  0  0  0  0
  6 10  1  0  0  0  0
  7  8  2  0  0  0  0
  7 12  1  0  0  0  0
  8  9  1  0  0  0  0
  9 10  2  0  0  0  0
 10 11  1  0  0  0  0
 11 12  2  0  0  0  0
M  END
>  <CHROM.1>
5.69788348,17.24359026,4.39278753,2.25537663,-0.94886199,-2.02707367

>  <Name>
ligand

>  <RI>
0

>  <Rbt.Current_Directory>
/home/itssahil/PROJECTS/Mol_Feturizer/Test_systems_manuscript/rnas/4lx5

>  <Rbt.Executable>
rbdock ($Id: //depot/dev/client3/rdock/2013.1/src/exe/rbdock.cxx#4 $)

>  <Rbt.Library>
libRbt.so (2013.1, Build901 2013/11/27)

>  <Rbt.Parameter_File>
/export/apps/rDock/src/rDock_2013.1_src/data/scripts/dock_solv.prm

>  <Rbt.Receptor>
prm/pocket_docking_8.prm

>  <SCORE>
-15.0801

>  <SCORE.INTER>
-15.0801

>  <SCORE.INTER.CONST>
1

>  <SCORE.INTER.POLAR>
0

>  <SCORE.INTER.ROT>
0

>  <SCORE.INTER.SOLV>
15.6163

>  <SCORE.INTER.VDW>
-18.8589

>  <SCORE.INTER.norm>
-1.25668

>  <SCORE.INTRA>
0

>  <SCORE.INTRA.DIHEDRAL>
0

>  <SCORE.INTRA.DIHEDRAL.0>
0

>  <SCORE.INTRA.POLAR>
0

>  <SCORE.INTRA.POLAR.0>
0

>  <SCORE.INTRA.REPUL>
0

>  <SCORE.INTRA.REPUL.0>
0

>  <SCORE.INTRA.SOLV>
0

>  <SCORE.INTRA.SOLV.lig_0>
-48.1583

>  <SCORE.INTRA.VDW>
0

>  <SCORE.INTRA.VDW.0>
0

>  <SCORE.INTRA.norm>
0

>  <SCORE.RESTR>
0

>  <SCORE.RESTR.CAVITY>
0

>  <SCORE.RESTR.norm>
0

>  <SCORE.SYSTEM>
0

>  <SCORE.SYSTEM.CONST>
0

>  <SCORE.SYSTEM.DIHEDRAL>
0

>  <SCORE.SYSTEM.SOLV>
0

>  <SCORE.SYSTEM.norm>
0

>  <SCORE.heavy>
12

>  <SCORE.norm>
-1.25668

>  <RMSD>
3.044

$$$$
ligand
 OpenBabel02271912143D
libRbt.so/2013.1/901 2013/11/27
 12 13  0  0  0  0  0  0  0  0999 V2000
    4.6787   15.4807    3.9502 C   0  0  0  0  0  0  0  0  0  0  0  0
    6.0502   17.0808    2.9535 C   0  0  0  0  0  0  0  0  0  0  0  0
    3.9925   14.3458    3.8499 N   0  0  0  0  0  0  0  0  0  0  0  0
    6.7034   17.5928    1.9046 N   0  0  0  0  0  0  0  0  0  0  0  0
    5.3327   15.9528    2.8665 N   0  0  0  0  0  0  0  0  0  0  0  0
    4.7333   16.1267    5.1361 N   0  0  0  0  0  0  0  0  0  0  0  0
    6.8909   19.6391    5.4865 N   0  0  0  0  0  0  0  0  0  0  0  0
    6.2032   19.1154    6.5921 C   0  0  0  0  0  0  0  0  0  0  0  0
    5.4602   17.9190    6.4607 N   0  0  0  0  0  0  0  0  0  0  0  0
    5.4373   17.2781    5.2721 C   0  0  0  0  0  0  0  0  0  0  0  0
    6.1266   17.7808    4.1639 C   0  0  0  0  0  0  0  0  0  0  0  0
    6.8603   18.9625    4.2510 C   0  0  0  0  0  0  0  0  0  0  0  0
  1  3  1  0  0  0  0
  1  5  1  0  0  0  0
  1  6  2  0  0  0  0
  2  5  2  0  0  0  0
  2 11  1  0  0  0  0
  2  4  1  0  0  0  0
  6 10  1  0  0  0  0
  7  8  2  0  0  0  0
  7 12  1  0  0  0  0
  8  9  1  0  0  0  0
  9 10  2  0  0  0  0
 10 11  1  0  0  0  0
 11 12  2  0  0  0  0
M  END
>  <CHROM.1>
5.69144837,17.24649984,4.39780372,2.25360821,-0.94506731,-2.02782424

>  <Name>
ligand

>  <RI>
0

>  <Rbt.Current_Directory>
/home/itssahil/PROJECTS/Mol_Feturizer/Test_systems_manuscript/rnas/4lx5

>  <Rbt.Executable>
rbdock ($Id: //depot/dev/client3/rdock/2013.1/src/exe/rbdock.cxx#4 $)

>  <Rbt.Library>
libRbt.so (2013.1, Build901 2013/11/27)

>  <Rbt.Parameter_File>
/export/apps/rDock/src/rDock_2013.1_src/data/scripts/dock_solv.prm

>  <Rbt.Receptor>
prm/blind_docking_100.prm

>  <SCORE>
-15.0759

>  <SCORE.INTER>
-15.0759

>  <SCORE.INTER.CONST>
1

>  <SCORE.INTER.POLAR>
0

>  <SCORE.INTER.ROT>
0

>  <SCORE.INTER.SOLV>
15.5398

>  <SCORE.INTER.VDW>
-18.8306

>  <SCORE.INTER.norm>
-1.25633

>  <SCORE.INTRA>
0

>  <SCORE.INTRA.DIHEDRAL>
0

>  <SCORE.INTRA.DIHEDRAL.0>
0

>  <SCORE.INTRA.POLAR>
0

>  <SCORE.INTRA.POLAR.0>
0

>  <SCORE.INTRA.REPUL>
0

>  <SCORE.INTRA.REPUL.0>
0

>  <SCORE.INTRA.SOLV>
0

>  <SCORE.INTRA.SOLV.lig_0>
-48.1583

>  <SCORE.INTRA.VDW>
0

>  <SCORE.INTRA.VDW.0>
0

>  <SCORE.INTRA.norm>
0

>  <SCORE.RESTR>
0

>  <SCORE.RESTR.CAVITY>
0

>  <SCORE.RESTR.norm>
0

>  <SCORE.SYSTEM>
0

>  <SCORE.SYSTEM.CONST>
0

>  <SCORE.SYSTEM.DIHEDRAL>
0

>  <SCORE.SYSTEM.SOLV>
0

>  <SCORE.SYSTEM.norm>
0

>  <SCORE.heavy>
12

>  <SCORE.norm>
-1.25633

>  <RMSD>
3.045

$$$$
ligand
 OpenBabel02271912143D
libRbt.so/2013.1/901 2013/11/27
 12 13  0  0  0  0  0  0  0  0999 V2000
    4.6922   15.4754    3.9522 C   0  0  0  0  0  0  0  0  0  0  0  0
    6.0608   17.0794    2.9578 C   0  0  0  0  0  0  0  0  0  0  0  0
    4.0097   14.3383    3.8508 N   0  0  0  0  0  0  0  0  0  0  0  0
    6.7145   17.5932    1.9101 N   0  0  0  0  0  0  0  0  0  0  0  0
    5.3469   15.9493    2.8696 N   0  0  0  0  0  0  0  0  0  0  0  0
    4.7425   16.1218    5.1381 N   0  0  0  0  0  0  0  0  0  0  0  0
    6.8887   19.6409    5.4918 N   0  0  0  0  0  0  0  0  0  0  0  0
    6.2004   19.1153    6.5962 C   0  0  0  0  0  0  0  0  0  0  0  0
    5.4613   17.9166    6.4637 N   0  0  0  0  0  0  0  0  0  0  0  0
    5.4427   17.2754    5.2752 C   0  0  0  0  0  0  0  0  0  0  0  0
    6.1327   17.7800    4.1682 C   0  0  0  0  0  0  0  0  0  0  0  0
    6.8626   18.9639    4.2564 C   0  0  0  0  0  0  0  0  0  0  0  0
  1  3  1  0  0  0  0
  1  5  1  0  0  0  0
  1  6  2  0  0  0  0
  2  5  2  0  0  0  0
  2 11  1  0  0  0  0
  2  4  1  0  0  0  0
  6 10  1  0  0  0  0
  7  8  2  0  0  0  0
  7 12  1  0  0  0  0
  8  9  1  0  0  0  0
  9 10  2  0  0  0  0
 10 11  1  0  0  0  0
 11 12  2  0  0  0  0
M  END
>  <CHROM.1>
5.69866797,17.24438942,4.40136457,2.24830103,-0.94695320,-2.03235475

>  <Name>
ligand

>  <RI>
0

>  <Rbt.Current_Directory>
/home/itssahil/PROJECTS/Mol_Feturizer/Test_systems_manuscript/rnas/4lx5

>  <Rbt.Executable>
rbdock ($Id: //depot/dev/client3/rdock/2013.1/src/exe/rbdock.cxx#4 $)

>  <Rbt.Library>
libRbt.so (2013.1, Build901 2013/11/27)

>  <Rbt.Parameter_File>
/export/apps/rDock/src/rDock_2013.1_src/data/scripts/dock_solv.prm

>  <Rbt.Receptor>
prm/blind_docking_80.prm

>  <SCORE>
-15.0718

>  <SCORE.INTER>
-15.0718

>  <SCORE.INTER.CONST>
1

>  <SCORE.INTER.POLAR>
0

>  <SCORE.INTER.ROT>
0

>  <SCORE.INTER.SOLV>
15.6357

>  <SCORE.INTER.VDW>
-18.8597

>  <SCORE.INTER.norm>
-1.25598

>  <SCORE.INTRA>
0

>  <SCORE.INTRA.DIHEDRAL>
0

>  <SCORE.INTRA.DIHEDRAL.0>
0

>  <SCORE.INTRA.POLAR>
0

>  <SCORE.INTRA.POLAR.0>
0

>  <SCORE.INTRA.REPUL>
0

>  <SCORE.INTRA.REPUL.0>
0

>  <SCORE.INTRA.SOLV>
0

>  <SCORE.INTRA.SOLV.lig_0>
-48.1583

>  <SCORE.INTRA.VDW>
0

>  <SCORE.INTRA.VDW.0>
0

>  <SCORE.INTRA.norm>
0

>  <SCORE.RESTR>
0

>  <SCORE.RESTR.CAVITY>
0

>  <SCORE.RESTR.norm>
0

>  <SCORE.SYSTEM>
0

>  <SCORE.SYSTEM.CONST>
0

>  <SCORE.SYSTEM.DIHEDRAL>
0

>  <SCORE.SYSTEM.SOLV>
0

>  <SCORE.SYSTEM.norm>
0

>  <SCORE.heavy>
12

>  <SCORE.norm>
-1.25598

>  <RMSD>
3.045

$$$$
ligand
 OpenBabel02271912143D
libRbt.so/2013.1/901 2013/11/27
 12 13  0  0  0  0  0  0  0  0999 V2000
    4.6791   15.4774    3.9428 C   0  0  0  0  0  0  0  0  0  0  0  0
    6.0581   17.0809    2.9619 C   0  0  0  0  0  0  0  0  0  0  0  0
    3.9904   14.3450    3.8323 N   0  0  0  0  0  0  0  0  0  0  0  0
    6.7162   17.5984    1.9188 N   0  0  0  0  0  0  0  0  0  0  0  0
    5.3380   15.9554    2.8646 N   0  0  0  0  0  0  0  0  0  0  0  0
    4.7313   16.1151    5.1333 N   0  0  0  0  0  0  0  0  0  0  0  0
    6.8966   19.6195    5.5153 N   0  0  0  0  0  0  0  0  0  0  0  0
    6.2037   19.0899    6.6149 C   0  0  0  0  0  0  0  0  0  0  0  0
    5.4582   17.8963    6.4728 N   0  0  0  0  0  0  0  0  0  0  0  0
    5.4377   17.2638    5.2797 C   0  0  0  0  0  0  0  0  0  0  0  0
    6.1321   17.7723    4.1773 C   0  0  0  0  0  0  0  0  0  0  0  0
    6.8685   18.9515    4.2751 C   0  0  0  0  0  0  0  0  0  0  0  0
  1  3  1  0  0  0  0
  1  5  1  0  0  0  0
  1  6  2  0  0  0  0
  2  5  2  0  0  0  0
  2 11  1  0  0  0  0
  2  4  1  0  0  0  0
  6 10  1  0  0  0  0
  7  8  2  0  0  0  0
  7 12  1  0  0  0  0
  8  9  1  0  0  0  0
  9 10  2  0  0  0  0
 10 11  1  0  0  0  0
 11 12  2  0  0  0  0
M  END
>  <CHROM.1>
5.69477607,17.23754163,4.40605559,2.25030947,-0.94127993,-2.02358909

>  <Name>
ligand

>  <RI>
0

>  <Rbt.Current_Directory>
/home/itssahil/PROJECTS/Mol_Feturizer/Test_systems_manuscript/rnas/4lx5

>  <Rbt.Executable>
rbdock ($Id: //depot/dev/client3/rdock/2013.1/src/exe/rbdock.cxx#4 $)

>  <Rbt.Library>
libRbt.so (2013.1, Build901 2013/11/27)

>  <Rbt.Parameter_File>
/export/apps/rDock/src/rDock_2013.1_src/data/scripts/dock_solv.prm

>  <Rbt.Receptor>
prm/pocket_docking_5.prm

>  <SCORE>
-15.0455

>  <SCORE.INTER>
-15.0455

>  <SCORE.INTER.CONST>
1

>  <SCORE.INTER.POLAR>
0

>  <SCORE.INTER.ROT>
0

>  <SCORE.INTER.SOLV>
15.5081

>  <SCORE.INTER.VDW>
-18.7997

>  <SCORE.INTER.norm>
-1.25379

>  <SCORE.INTRA>
0

>  <SCORE.INTRA.DIHEDRAL>
0

>  <SCORE.INTRA.DIHEDRAL.0>
0

>  <SCORE.INTRA.POLAR>
0

>  <SCORE.INTRA.POLAR.0>
0

>  <SCORE.INTRA.REPUL>
0

>  <SCORE.INTRA.REPUL.0>
0

>  <SCORE.INTRA.SOLV>
0

>  <SCORE.INTRA.SOLV.lig_0>
-48.1583

>  <SCORE.INTRA.VDW>
0

>  <SCORE.INTRA.VDW.0>
0

>  <SCORE.INTRA.norm>
0

>  <SCORE.RESTR>
0

>  <SCORE.RESTR.CAVITY>
0

>  <SCORE.RESTR.norm>
0

>  <SCORE.SYSTEM>
0

>  <SCORE.SYSTEM.CONST>
0

>  <SCORE.SYSTEM.DIHEDRAL>
0

>  <SCORE.SYSTEM.SOLV>
0

>  <SCORE.SYSTEM.norm>
0

>  <SCORE.heavy>
12

>  <SCORE.norm>
-1.25379

>  <RMSD>
3.045

$$$$
ligand
 OpenBabel02271912143D
libRbt.so/2013.1/901 2013/11/27
 12 13  0  0  0  0  0  0  0  0999 V2000
    4.6955   15.3867    3.9443 C   0  0  0  0  0  0  0  0  0  0  0  0
    6.0134   17.0235    2.9349 C   0  0  0  0  0  0  0  0  0  0  0  0
    4.0367   14.2353    3.8493 N   0  0  0  0  0  0  0  0  0  0  0  0
    6.6398   17.5546    1.8792 N   0  0  0  0  0  0  0  0  0  0  0  0
    5.3233   15.8782    2.8536 N   0  0  0  0  0  0  0  0  0  0  0  0
    4.7495   16.0305    5.1314 N   0  0  0  0  0  0  0  0  0  0  0  0
    6.8230   19.5948    5.4648 N   0  0  0  0  0  0  0  0  0  0  0  0
    6.1632   19.0509    6.5776 C   0  0  0  0  0  0  0  0  0  0  0  0
    5.4486   17.8367    6.4522 N   0  0  0  0  0  0  0  0  0  0  0  0
    5.4262   17.1988    5.2619 C   0  0  0  0  0  0  0  0  0  0  0  0
    6.0882   17.7218    4.1464 C   0  0  0  0  0  0  0  0  0  0  0  0
    6.7932   18.9212    4.2277 C   0  0  0  0  0  0  0  0  0  0  0  0
  1  3  1  0  0  0  0
  1  5  1  0  0  0  0
  1  6  2  0  0  0  0
  2  5  2  0  0  0  0
  2 11  1  0  0  0  0
  2  4  1  0  0  0  0
  6 10  1  0  0  0  0
  7  8  2  0  0  0  0
  7 12  1  0  0  0  0
  8  9  1  0  0  0  0
  9 10  2  0  0  0  0
 10 11  1  0  0  0  0
 11 12  2  0  0  0  0
M  END
>  <CHROM.1>
5.66958061,17.17607622,4.38427210,2.25491693,-0.97328470,-2.02374970

>  <Name>
ligand

>  <RI>
0

>  <Rbt.Current_Directory>
/home/itssahil/PROJECTS/Mol_Feturizer/Test_systems_manuscript/rnas/4lx5

>  <Rbt.Executable>
rbdock ($Id: //depot/dev/client3/rdock/2013.1/src/exe/rbdock.cxx#4 $)

>  <Rbt.Library>
libRbt.so (2013.1, Build901 2013/11/27)

>  <Rbt.Parameter_File>
/export/apps/rDock/src/rDock_2013.1_src/data/scripts/dock_solv.prm

>  <Rbt.Receptor>
prm/pocket_docking_5.prm

>  <SCORE>
-15.0386

>  <SCORE.INTER>
-15.0386

>  <SCORE.INTER.CONST>
1

>  <SCORE.INTER.POLAR>
0

>  <SCORE.INTER.ROT>
0

>  <SCORE.INTER.SOLV>
15.7202

>  <SCORE.INTER.VDW>
-18.8658

>  <SCORE.INTER.norm>
-1.25322

>  <SCORE.INTRA>
0

>  <SCORE.INTRA.DIHEDRAL>
0

>  <SCORE.INTRA.DIHEDRAL.0>
0

>  <SCORE.INTRA.POLAR>
0

>  <SCORE.INTRA.POLAR.0>
0

>  <SCORE.INTRA.REPUL>
0

>  <SCORE.INTRA.REPUL.0>
0

>  <SCORE.INTRA.SOLV>
0

>  <SCORE.INTRA.SOLV.lig_0>
-48.1583

>  <SCORE.INTRA.VDW>
0

>  <SCORE.INTRA.VDW.0>
0

>  <SCORE.INTRA.norm>
0

>  <SCORE.RESTR>
0

>  <SCORE.RESTR.CAVITY>
0

>  <SCORE.RESTR.norm>
0

>  <SCORE.SYSTEM>
0

>  <SCORE.SYSTEM.CONST>
0

>  <SCORE.SYSTEM.DIHEDRAL>
0

>  <SCORE.SYSTEM.SOLV>
0

>  <SCORE.SYSTEM.norm>
0

>  <SCORE.heavy>
12

>  <SCORE.norm>
-1.25322

>  <RMSD>
3.045

$$$$
ligand
 OpenBabel02271912143D
libRbt.so/2013.1/901 2013/11/27
 12 13  0  0  0  0  0  0  0  0999 V2000
    4.6842   15.4742    3.9554 C   0  0  0  0  0  0  0  0  0  0  0  0
    6.0441   17.0763    2.9460 C   0  0  0  0  0  0  0  0  0  0  0  0
    3.9996   14.3378    3.8617 N   0  0  0  0  0  0  0  0  0  0  0  0
    6.6874   17.5888    1.8913 N   0  0  0  0  0  0  0  0  0  0  0  0
    5.3282   15.9468    2.8659 N   0  0  0  0  0  0  0  0  0  0  0  0
    4.7475   16.1212    5.1403 N   0  0  0  0  0  0  0  0  0  0  0  0
    6.9007   19.6383    5.4699 N   0  0  0  0  0  0  0  0  0  0  0  0
    6.2233   19.1141    6.5816 C   0  0  0  0  0  0  0  0  0  0  0  0
    5.4817   17.9161    6.4574 N   0  0  0  0  0  0  0  0  0  0  0  0
    5.4502   17.2742    5.2696 C   0  0  0  0  0  0  0  0  0  0  0  0
    6.1292   17.7774    4.1552 C   0  0  0  0  0  0  0  0  0  0  0  0
    6.8611   18.9607    4.2352 C   0  0  0  0  0  0  0  0  0  0  0  0
  1  3  1  0  0  0  0
  1  5  1  0  0  0  0
  1  6  2  0  0  0  0
  2  5  2  0  0  0  0
  2 11  1  0  0  0  0
  2  4  1  0  0  0  0
  6 10  1  0  0  0  0
  7  8  2  0  0  0  0
  7 12  1  0  0  0  0
  8  9  1  0  0  0  0
  9 10  2  0  0  0  0
 10 11  1  0  0  0  0
 11 12  2  0  0  0  0
M  END
>  <CHROM.1>
5.69706620,17.24244963,4.39313651,2.26497984,-0.95057362,-2.01937208

>  <Name>
ligand

>  <RI>
0

>  <Rbt.Current_Directory>
/home/itssahil/PROJECTS/Mol_Feturizer/Test_systems_manuscript/rnas/4lx5

>  <Rbt.Executable>
rbdock ($Id: //depot/dev/client3/rdock/2013.1/src/exe/rbdock.cxx#4 $)

>  <Rbt.Library>
libRbt.so (2013.1, Build901 2013/11/27)

>  <Rbt.Parameter_File>
/export/apps/rDock/src/rDock_2013.1_src/data/scripts/dock_solv.prm

>  <Rbt.Receptor>
prm/pocket_docking_7.prm

>  <SCORE>
-15.0839

>  <SCORE.INTER>
-15.0839

>  <SCORE.INTER.CONST>
1

>  <SCORE.INTER.POLAR>
0

>  <SCORE.INTER.ROT>
0

>  <SCORE.INTER.SOLV>
15.5764

>  <SCORE.INTER.VDW>
-18.8481

>  <SCORE.INTER.norm>
-1.25699

>  <SCORE.INTRA>
0

>  <SCORE.INTRA.DIHEDRAL>
0

>  <SCORE.INTRA.DIHEDRAL.0>
0

>  <SCORE.INTRA.POLAR>
0

>  <SCORE.INTRA.POLAR.0>
0

>  <SCORE.INTRA.REPUL>
0

>  <SCORE.INTRA.REPUL.0>
0

>  <SCORE.INTRA.SOLV>
0

>  <SCORE.INTRA.SOLV.lig_0>
-48.1583

>  <SCORE.INTRA.VDW>
0

>  <SCORE.INTRA.VDW.0>
0

>  <SCORE.INTRA.norm>
0

>  <SCORE.RESTR>
0

>  <SCORE.RESTR.CAVITY>
0

>  <SCORE.RESTR.norm>
0

>  <SCORE.SYSTEM>
0

>  <SCORE.SYSTEM.CONST>
0

>  <SCORE.SYSTEM.DIHEDRAL>
0

>  <SCORE.SYSTEM.SOLV>
0

>  <SCORE.SYSTEM.norm>
0

>  <SCORE.heavy>
12

>  <SCORE.norm>
-1.25699

>  <RMSD>
3.045

$$$$
ligand
 OpenBabel02271912143D
libRbt.so/2013.1/901 2013/11/27
 12 13  0  0  0  0  0  0  0  0999 V2000
    4.6789   15.4787    3.9502 C   0  0  0  0  0  0  0  0  0  0  0  0
    6.0491   17.0781    2.9506 C   0  0  0  0  0  0  0  0  0  0  0  0
    3.9928   14.3436    3.8516 N   0  0  0  0  0  0  0  0  0  0  0  0
    6.7011   17.5893    1.9005 N   0  0  0  0  0  0  0  0  0  0  0  0
    5.3317   15.9500    2.8653 N   0  0  0  0  0  0  0  0  0  0  0  0
    4.7348   16.1257    5.1354 N   0  0  0  0  0  0  0  0  0  0  0  0
    6.8922   19.6388    5.4804 N   0  0  0  0  0  0  0  0  0  0  0  0
    6.2058   19.1159    6.5872 C   0  0  0  0  0  0  0  0  0  0  0  0
    5.4628   17.9193    6.4577 N   0  0  0  0  0  0  0  0  0  0  0  0
    5.4387   17.2774    5.2697 C   0  0  0  0  0  0  0  0  0  0  0  0
    6.1268   17.7792    4.1603 C   0  0  0  0  0  0  0  0  0  0  0  0
    6.8604   18.9611    4.2455 C   0  0  0  0  0  0  0  0  0  0  0  0
  1  3  1  0  0  0  0
  1  5  1  0  0  0  0
  1  6  2  0  0  0  0
  2  5  2  0  0  0  0
  2 11  1  0  0  0  0
  2  4  1  0  0  0  0
  6 10  1  0  0  0  0
  7  8  2  0  0  0  0
  7 12  1  0  0  0  0
  8  9  1  0  0  0  0
  9 10  2  0  0  0  0
 10 11  1  0  0  0  0
 11 12  2  0  0  0  0
M  END
>  <CHROM.1>
5.69190843,17.24505988,4.39512485,2.25517816,-0.94567836,-2.02741973

>  <Name>
ligand

>  <RI>
0

>  <Rbt.Current_Directory>
/home/itssahil/PROJECTS/Mol_Feturizer/Test_systems_manuscript/rnas/4lx5

>  <Rbt.Executable>
rbdock ($Id: //depot/dev/client3/rdock/2013.1/src/exe/rbdock.cxx#4 $)

>  <Rbt.Library>
libRbt.so (2013.1, Build901 2013/11/27)

>  <Rbt.Parameter_File>
/export/apps/rDock/src/rDock_2013.1_src/data/scripts/dock_solv.prm

>  <Rbt.Receptor>
prm/pocket_docking_8.prm

>  <SCORE>
-15.078

>  <SCORE.INTER>
-15.078

>  <SCORE.INTER.CONST>
1

>  <SCORE.INTER.POLAR>
0

>  <SCORE.INTER.ROT>
0

>  <SCORE.INTER.SOLV>
15.5443

>  <SCORE.INTER.VDW>
-18.8334

>  <SCORE.INTER.norm>
-1.2565

>  <SCORE.INTRA>
0

>  <SCORE.INTRA.DIHEDRAL>
0

>  <SCORE.INTRA.DIHEDRAL.0>
0

>  <SCORE.INTRA.POLAR>
0

>  <SCORE.INTRA.POLAR.0>
0

>  <SCORE.INTRA.REPUL>
0

>  <SCORE.INTRA.REPUL.0>
0

>  <SCORE.INTRA.SOLV>
0

>  <SCORE.INTRA.SOLV.lig_0>
-48.1583

>  <SCORE.INTRA.VDW>
0

>  <SCORE.INTRA.VDW.0>
0

>  <SCORE.INTRA.norm>
0

>  <SCORE.RESTR>
0

>  <SCORE.RESTR.CAVITY>
0

>  <SCORE.RESTR.norm>
0

>  <SCORE.SYSTEM>
0

>  <SCORE.SYSTEM.CONST>
0

>  <SCORE.SYSTEM.DIHEDRAL>
0

>  <SCORE.SYSTEM.SOLV>
0

>  <SCORE.SYSTEM.norm>
0

>  <SCORE.heavy>
12

>  <SCORE.norm>
-1.2565

>  <RMSD>
3.045

$$$$
ligand
 OpenBabel02271912143D
libRbt.so/2013.1/901 2013/11/27
 12 13  0  0  0  0  0  0  0  0999 V2000
    4.6884   15.3939    3.9486 C   0  0  0  0  0  0  0  0  0  0  0  0
    6.0128   17.0235    2.9359 C   0  0  0  0  0  0  0  0  0  0  0  0
    4.0228   14.2463    3.8551 N   0  0  0  0  0  0  0  0  0  0  0  0
    6.6392   17.5514    1.8786 N   0  0  0  0  0  0  0  0  0  0  0  0
    5.3159   15.8821    2.8563 N   0  0  0  0  0  0  0  0  0  0  0  0
    4.7494   16.0371    5.1357 N   0  0  0  0  0  0  0  0  0  0  0  0
    6.8441   19.5895    5.4642 N   0  0  0  0  0  0  0  0  0  0  0  0
    6.1842   19.0490    6.5787 C   0  0  0  0  0  0  0  0  0  0  0  0
    5.4625   17.8389    6.4549 N   0  0  0  0  0  0  0  0  0  0  0  0
    5.4331   17.2015    5.2646 C   0  0  0  0  0  0  0  0  0  0  0  0
    6.0949   17.7210    4.1474 C   0  0  0  0  0  0  0  0  0  0  0  0
    6.8069   18.9164    4.2270 C   0  0  0  0  0  0  0  0  0  0  0  0
  1  3  1  0  0  0  0
  1  5  1  0  0  0  0
  1  6  2  0  0  0  0
  2  5  2  0  0  0  0
  2 11  1  0  0  0  0
  2  4  1  0  0  0  0
  6 10  1  0  0  0  0
  7  8  2  0  0  0  0
  7 12  1  0  0  0  0
  8  9  1  0  0  0  0
  9 10  2  0  0  0  0
 10 11  1  0  0  0  0
 11 12  2  0  0  0  0
M  END
>  <CHROM.1>
5.67387283,17.17761336,4.38625770,2.26376544,-0.96939171,-2.01617643

>  <Name>
ligand

>  <RI>
0

>  <Rbt.Current_Directory>
/home/itssahil/PROJECTS/Mol_Feturizer/Test_systems_manuscript/rnas/4lx5

>  <Rbt.Executable>
rbdock ($Id: //depot/dev/client3/rdock/2013.1/src/exe/rbdock.cxx#4 $)

>  <Rbt.Library>
libRbt.so (2013.1, Build901 2013/11/27)

>  <Rbt.Parameter_File>
/export/apps/rDock/src/rDock_2013.1_src/data/scripts/dock_solv.prm

>  <Rbt.Receptor>
prm/blind_docking_60.prm

>  <SCORE>
-15.0409

>  <SCORE.INTER>
-15.0409

>  <SCORE.INTER.CONST>
1

>  <SCORE.INTER.POLAR>
0

>  <SCORE.INTER.ROT>
0

>  <SCORE.INTER.SOLV>
15.6504

>  <SCORE.INTER.VDW>
-18.8441

>  <SCORE.INTER.norm>
-1.25341

>  <SCORE.INTRA>
0

>  <SCORE.INTRA.DIHEDRAL>
0

>  <SCORE.INTRA.DIHEDRAL.0>
0

>  <SCORE.INTRA.POLAR>
0

>  <SCORE.INTRA.POLAR.0>
0

>  <SCORE.INTRA.REPUL>
0

>  <SCORE.INTRA.REPUL.0>
0

>  <SCORE.INTRA.SOLV>
0

>  <SCORE.INTRA.SOLV.lig_0>
-48.1583

>  <SCORE.INTRA.VDW>
0

>  <SCORE.INTRA.VDW.0>
0

>  <SCORE.INTRA.norm>
0

>  <SCORE.RESTR>
0

>  <SCORE.RESTR.CAVITY>
0

>  <SCORE.RESTR.norm>
0

>  <SCORE.SYSTEM>
0

>  <SCORE.SYSTEM.CONST>
0

>  <SCORE.SYSTEM.DIHEDRAL>
0

>  <SCORE.SYSTEM.SOLV>
0

>  <SCORE.SYSTEM.norm>
0

>  <SCORE.heavy>
12

>  <SCORE.norm>
-1.25341

>  <RMSD>
3.046

$$$$
ligand
 OpenBabel02271912143D
libRbt.so/2013.1/901 2013/11/27
 12 13  0  0  0  0  0  0  0  0999 V2000
    4.6928   15.3907    3.9491 C   0  0  0  0  0  0  0  0  0  0  0  0
    6.0115   17.0232    2.9339 C   0  0  0  0  0  0  0  0  0  0  0  0
    4.0302   14.2412    3.8571 N   0  0  0  0  0  0  0  0  0  0  0  0
    6.6352   17.5523    1.8755 N   0  0  0  0  0  0  0  0  0  0  0  0
    5.3176   15.8800    2.8558 N   0  0  0  0  0  0  0  0  0  0  0  0
    4.7536   16.0346    5.1359 N   0  0  0  0  0  0  0  0  0  0  0  0
    6.8391   19.5928    5.4598 N   0  0  0  0  0  0  0  0  0  0  0  0
    6.1821   19.0512    6.5754 C   0  0  0  0  0  0  0  0  0  0  0  0
    5.4635   17.8390    6.4532 N   0  0  0  0  0  0  0  0  0  0  0  0
    5.4343   17.2009    5.2633 C   0  0  0  0  0  0  0  0  0  0  0  0
    6.0933   17.7216    4.1449 C   0  0  0  0  0  0  0  0  0  0  0  0
    6.8022   18.9190    4.2230 C   0  0  0  0  0  0  0  0  0  0  0  0
  1  3  1  0  0  0  0
  1  5  1  0  0  0  0
  1  6  2  0  0  0  0
  2  5  2  0  0  0  0
  2 11  1  0  0  0  0
  2  4  1  0  0  0  0
  6 10  1  0  0  0  0
  7  8  2  0  0  0  0
  7 12  1  0  0  0  0
  8  9  1  0  0  0  0
  9 10  2  0  0  0  0
 10 11  1  0  0  0  0
 11 12  2  0  0  0  0
M  END
>  <CHROM.1>
5.67403100,17.17722649,4.38464111,2.26372673,-0.97237507,-2.01673262

>  <Name>
ligand

>  <RI>
0

>  <Rbt.Current_Directory>
/home/itssahil/PROJECTS/Mol_Feturizer/Test_systems_manuscript/rnas/4lx5

>  <Rbt.Executable>
rbdock ($Id: //depot/dev/client3/rdock/2013.1/src/exe/rbdock.cxx#4 $)

>  <Rbt.Library>
libRbt.so (2013.1, Build901 2013/11/27)

>  <Rbt.Parameter_File>
/export/apps/rDock/src/rDock_2013.1_src/data/scripts/dock_solv.prm

>  <Rbt.Receptor>
prm/blind_docking_60.prm

>  <SCORE>
-15.0415

>  <SCORE.INTER>
-15.0415

>  <SCORE.INTER.CONST>
1

>  <SCORE.INTER.POLAR>
0

>  <SCORE.INTER.ROT>
0

>  <SCORE.INTER.SOLV>
15.6873

>  <SCORE.INTER.VDW>
-18.8568

>  <SCORE.INTER.norm>
-1.25346

>  <SCORE.INTRA>
0

>  <SCORE.INTRA.DIHEDRAL>
0

>  <SCORE.INTRA.DIHEDRAL.0>
0

>  <SCORE.INTRA.POLAR>
0

>  <SCORE.INTRA.POLAR.0>
0

>  <SCORE.INTRA.REPUL>
0

>  <SCORE.INTRA.REPUL.0>
0

>  <SCORE.INTRA.SOLV>
0

>  <SCORE.INTRA.SOLV.lig_0>
-48.1583

>  <SCORE.INTRA.VDW>
0

>  <SCORE.INTRA.VDW.0>
0

>  <SCORE.INTRA.norm>
0

>  <SCORE.RESTR>
0

>  <SCORE.RESTR.CAVITY>
0

>  <SCORE.RESTR.norm>
0

>  <SCORE.SYSTEM>
0

>  <SCORE.SYSTEM.CONST>
0

>  <SCORE.SYSTEM.DIHEDRAL>
0

>  <SCORE.SYSTEM.SOLV>
0

>  <SCORE.SYSTEM.norm>
0

>  <SCORE.heavy>
12

>  <SCORE.norm>
-1.25346

>  <RMSD>
3.046

$$$$
ligand
 OpenBabel02271912143D
libRbt.so/2013.1/901 2013/11/27
 12 13  0  0  0  0  0  0  0  0999 V2000
    4.6903   15.4750    3.9577 C   0  0  0  0  0  0  0  0  0  0  0  0
    6.0515   17.0800    2.9546 C   0  0  0  0  0  0  0  0  0  0  0  0
    4.0073   14.3380    3.8604 N   0  0  0  0  0  0  0  0  0  0  0  0
    6.6977   17.5945    1.9025 N   0  0  0  0  0  0  0  0  0  0  0  0
    5.3372   15.9497    2.8708 N   0  0  0  0  0  0  0  0  0  0  0  0
    4.7491   16.1207    5.1436 N   0  0  0  0  0  0  0  0  0  0  0  0
    6.8971   19.6399    5.4843 N   0  0  0  0  0  0  0  0  0  0  0  0
    6.2168   19.1135    6.5932 C   0  0  0  0  0  0  0  0  0  0  0  0
    5.4770   17.9148    6.4652 N   0  0  0  0  0  0  0  0  0  0  0  0
    5.4500   17.2744    5.2764 C   0  0  0  0  0  0  0  0  0  0  0  0
    6.1320   17.7797    4.1649 C   0  0  0  0  0  0  0  0  0  0  0  0
    6.8623   18.9638    4.2486 C   0  0  0  0  0  0  0  0  0  0  0  0
  1  3  1  0  0  0  0
  1  5  1  0  0  0  0
  1  6  2  0  0  0  0
  2  5  2  0  0  0  0
  2 11  1  0  0  0  0
  2  4  1  0  0  0  0
  6 10  1  0  0  0  0
  7  8  2  0  0  0  0
  7 12  1  0  0  0  0
  8  9  1  0  0  0  0
  9 10  2  0  0  0  0
 10 11  1  0  0  0  0
 11 12  2  0  0  0  0
M  END
>  <CHROM.1>
5.69973527,17.24394315,4.40077746,2.25918240,-0.95023916,-2.02287070

>  <Name>
ligand

>  <RI>
0

>  <Rbt.Current_Directory>
/home/itssahil/PROJECTS/Mol_Feturizer/Test_systems_manuscript/rnas/4lx5

>  <Rbt.Executable>
rbdock ($Id: //depot/dev/client3/rdock/2013.1/src/exe/rbdock.cxx#4 $)

>  <Rbt.Library>
libRbt.so (2013.1, Build901 2013/11/27)

>  <Rbt.Parameter_File>
/export/apps/rDock/src/rDock_2013.1_src/data/scripts/dock_solv.prm

>  <Rbt.Receptor>
prm/blind_docking_80.prm

>  <SCORE>
-15.079

>  <SCORE.INTER>
-15.079

>  <SCORE.INTER.CONST>
1

>  <SCORE.INTER.POLAR>
0

>  <SCORE.INTER.ROT>
0

>  <SCORE.INTER.SOLV>
15.6147

>  <SCORE.INTER.VDW>
-18.8575

>  <SCORE.INTER.norm>
-1.25658

>  <SCORE.INTRA>
0

>  <SCORE.INTRA.DIHEDRAL>
0

>  <SCORE.INTRA.DIHEDRAL.0>
0

>  <SCORE.INTRA.POLAR>
0

>  <SCORE.INTRA.POLAR.0>
0

>  <SCORE.INTRA.REPUL>
0

>  <SCORE.INTRA.REPUL.0>
0

>  <SCORE.INTRA.SOLV>
0

>  <SCORE.INTRA.SOLV.lig_0>
-48.1583

>  <SCORE.INTRA.VDW>
0

>  <SCORE.INTRA.VDW.0>
0

>  <SCORE.INTRA.norm>
0

>  <SCORE.RESTR>
0

>  <SCORE.RESTR.CAVITY>
0

>  <SCORE.RESTR.norm>
0

>  <SCORE.SYSTEM>
0

>  <SCORE.SYSTEM.CONST>
0

>  <SCORE.SYSTEM.DIHEDRAL>
0

>  <SCORE.SYSTEM.SOLV>
0

>  <SCORE.SYSTEM.norm>
0

>  <SCORE.heavy>
12

>  <SCORE.norm>
-1.25658

>  <RMSD>
3.046

$$$$
ligand
 OpenBabel02271912143D
libRbt.so/2013.1/901 2013/11/27
 12 13  0  0  0  0  0  0  0  0999 V2000
    4.6783   15.4802    3.9526 C   0  0  0  0  0  0  0  0  0  0  0  0
    6.0493   17.0813    2.9568 C   0  0  0  0  0  0  0  0  0  0  0  0
    3.9930   14.3449    3.8518 N   0  0  0  0  0  0  0  0  0  0  0  0
    6.7027   17.5938    1.9082 N   0  0  0  0  0  0  0  0  0  0  0  0
    5.3326   15.9529    2.8692 N   0  0  0  0  0  0  0  0  0  0  0  0
    4.7321   16.1261    5.1386 N   0  0  0  0  0  0  0  0  0  0  0  0
    6.8873   19.6398    5.4904 N   0  0  0  0  0  0  0  0  0  0  0  0
    6.1994   19.1155    6.5956 C   0  0  0  0  0  0  0  0  0  0  0  0
    5.4572   17.9187    6.4638 N   0  0  0  0  0  0  0  0  0  0  0  0
    5.4352   17.2780    5.2751 C   0  0  0  0  0  0  0  0  0  0  0  0
    6.1248   17.7812    4.1673 C   0  0  0  0  0  0  0  0  0  0  0  0
    6.8577   18.9634    4.2548 C   0  0  0  0  0  0  0  0  0  0  0  0
  1  3  1  0  0  0  0
  1  5  1  0  0  0  0
  1  6  2  0  0  0  0
  2  5  2  0  0  0  0
  2 11  1  0  0  0  0
  2  4  1  0  0  0  0
  6 10  1  0  0  0  0
  7  8  2  0  0  0  0
  7 12  1  0  0  0  0
  8  9  1  0  0  0  0
  9 10  2  0  0  0  0
 10 11  1  0  0  0  0
 11 12  2  0  0  0  0
M  END
>  <CHROM.1>
5.68980442,17.24662040,4.40089831,2.25245513,-0.94543908,-2.02863423

>  <Name>
ligand

>  <RI>
0

>  <Rbt.Current_Directory>
/home/itssahil/PROJECTS/Mol_Feturizer/Test_systems_manuscript/rnas/4lx5

>  <Rbt.Executable>
rbdock ($Id: //depot/dev/client3/rdock/2013.1/src/exe/rbdock.cxx#4 $)

>  <Rbt.Library>
libRbt.so (2013.1, Build901 2013/11/27)

>  <Rbt.Parameter_File>
/export/apps/rDock/src/rDock_2013.1_src/data/scripts/dock_solv.prm

>  <Rbt.Receptor>
prm/pocket_docking_4.prm

>  <SCORE>
-15.0739

>  <SCORE.INTER>
-15.0739

>  <SCORE.INTER.CONST>
1

>  <SCORE.INTER.POLAR>
0

>  <SCORE.INTER.ROT>
0

>  <SCORE.INTER.SOLV>
15.5399

>  <SCORE.INTER.VDW>
-18.8292

>  <SCORE.INTER.norm>
-1.25615

>  <SCORE.INTRA>
0

>  <SCORE.INTRA.DIHEDRAL>
0

>  <SCORE.INTRA.DIHEDRAL.0>
0

>  <SCORE.INTRA.POLAR>
0

>  <SCORE.INTRA.POLAR.0>
0

>  <SCORE.INTRA.REPUL>
0

>  <SCORE.INTRA.REPUL.0>
0

>  <SCORE.INTRA.SOLV>
0

>  <SCORE.INTRA.SOLV.lig_0>
-48.1583

>  <SCORE.INTRA.VDW>
0

>  <SCORE.INTRA.VDW.0>
0

>  <SCORE.INTRA.norm>
0

>  <SCORE.RESTR>
0

>  <SCORE.RESTR.CAVITY>
0

>  <SCORE.RESTR.norm>
0

>  <SCORE.SYSTEM>
0

>  <SCORE.SYSTEM.CONST>
0

>  <SCORE.SYSTEM.DIHEDRAL>
0

>  <SCORE.SYSTEM.SOLV>
0

>  <SCORE.SYSTEM.norm>
0

>  <SCORE.heavy>
12

>  <SCORE.norm>
-1.25615

>  <RMSD>
3.046

$$$$
ligand
 OpenBabel02271912143D
libRbt.so/2013.1/901 2013/11/27
 12 13  0  0  0  0  0  0  0  0999 V2000
    4.6830   15.4771    3.9549 C   0  0  0  0  0  0  0  0  0  0  0  0
    6.0457   17.0794    2.9496 C   0  0  0  0  0  0  0  0  0  0  0  0
    3.9980   14.3411    3.8589 N   0  0  0  0  0  0  0  0  0  0  0  0
    6.6915   17.5923    1.8966 N   0  0  0  0  0  0  0  0  0  0  0  0
    5.3295   15.9502    2.8671 N   0  0  0  0  0  0  0  0  0  0  0  0
    4.7440   16.1233    5.1404 N   0  0  0  0  0  0  0  0  0  0  0  0
    6.8980   19.6392    5.4771 N   0  0  0  0  0  0  0  0  0  0  0  0
    6.2181   19.1144    6.5870 C   0  0  0  0  0  0  0  0  0  0  0  0
    5.4762   17.9168    6.4604 N   0  0  0  0  0  0  0  0  0  0  0  0
    5.4469   17.2758    5.2720 C   0  0  0  0  0  0  0  0  0  0  0  0
    6.1285   17.7796    4.1594 C   0  0  0  0  0  0  0  0  0  0  0  0
    6.8608   18.9625    4.2419 C   0  0  0  0  0  0  0  0  0  0  0  0
  1  3  1  0  0  0  0
  1  5  1  0  0  0  0
  1  6  2  0  0  0  0
  2  5  2  0  0  0  0
  2 11  1  0  0  0  0
  2  4  1  0  0  0  0
  6 10  1  0  0  0  0
  7  8  2  0  0  0  0
  7 12  1  0  0  0  0
  8  9  1  0  0  0  0
  9 10  2  0  0  0  0
 10 11  1  0  0  0  0
 11 12  2  0  0  0  0
M  END
>  <CHROM.1>
5.69566155,17.24458626,4.39606775,2.26200110,-0.94924844,-2.02106213

>  <Name>
ligand

>  <RI>
0

>  <Rbt.Current_Directory>
/home/itssahil/PROJECTS/Mol_Feturizer/Test_systems_manuscript/rnas/4lx5

>  <Rbt.Executable>
rbdock ($Id: //depot/dev/client3/rdock/2013.1/src/exe/rbdock.cxx#4 $)

>  <Rbt.Library>
libRbt.so (2013.1, Build901 2013/11/27)

>  <Rbt.Parameter_File>
/export/apps/rDock/src/rDock_2013.1_src/data/scripts/dock_solv.prm

>  <Rbt.Receptor>
prm/pocket_docking_4.prm

>  <SCORE>
-15.0822

>  <SCORE.INTER>
-15.0822

>  <SCORE.INTER.CONST>
1

>  <SCORE.INTER.POLAR>
0

>  <SCORE.INTER.ROT>
0

>  <SCORE.INTER.SOLV>
15.5657

>  <SCORE.INTER.VDW>
-18.8434

>  <SCORE.INTER.norm>
-1.25685

>  <SCORE.INTRA>
0

>  <SCORE.INTRA.DIHEDRAL>
0

>  <SCORE.INTRA.DIHEDRAL.0>
0

>  <SCORE.INTRA.POLAR>
0

>  <SCORE.INTRA.POLAR.0>
0

>  <SCORE.INTRA.REPUL>
0

>  <SCORE.INTRA.REPUL.0>
0

>  <SCORE.INTRA.SOLV>
0

>  <SCORE.INTRA.SOLV.lig_0>
-48.1583

>  <SCORE.INTRA.VDW>
0

>  <SCORE.INTRA.VDW.0>
0

>  <SCORE.INTRA.norm>
0

>  <SCORE.RESTR>
0

>  <SCORE.RESTR.CAVITY>
0

>  <SCORE.RESTR.norm>
0

>  <SCORE.SYSTEM>
0

>  <SCORE.SYSTEM.CONST>
0

>  <SCORE.SYSTEM.DIHEDRAL>
0

>  <SCORE.SYSTEM.SOLV>
0

>  <SCORE.SYSTEM.norm>
0

>  <SCORE.heavy>
12

>  <SCORE.norm>
-1.25685

>  <RMSD>
3.046

$$$$
ligand
 OpenBabel02271912143D
libRbt.so/2013.1/901 2013/11/27
 12 13  0  0  0  0  0  0  0  0999 V2000
    4.6756   15.4779    3.9536 C   0  0  0  0  0  0  0  0  0  0  0  0
    6.0440   17.0778    2.9522 C   0  0  0  0  0  0  0  0  0  0  0  0
    3.9897   14.3426    3.8558 N   0  0  0  0  0  0  0  0  0  0  0  0
    6.6944   17.5893    1.9013 N   0  0  0  0  0  0  0  0  0  0  0  0
    5.3268   15.9495    2.8679 N   0  0  0  0  0  0  0  0  0  0  0  0
    4.7328   16.1250    5.1388 N   0  0  0  0  0  0  0  0  0  0  0  0
    6.8895   19.6387    5.4810 N   0  0  0  0  0  0  0  0  0  0  0  0
    6.2047   19.1156    6.5887 C   0  0  0  0  0  0  0  0  0  0  0  0
    5.4620   17.9187    6.4602 N   0  0  0  0  0  0  0  0  0  0  0  0
    5.4365   17.2769    5.2722 C   0  0  0  0  0  0  0  0  0  0  0  0
    6.1230   17.7789    4.1619 C   0  0  0  0  0  0  0  0  0  0  0  0
    6.8563   18.9610    4.2462 C   0  0  0  0  0  0  0  0  0  0  0  0
  1  3  1  0  0  0  0
  1  5  1  0  0  0  0
  1  6  2  0  0  0  0
  2  5  2  0  0  0  0
  2 11  1  0  0  0  0
  2  4  1  0  0  0  0
  6 10  1  0  0  0  0
  7  8  2  0  0  0  0
  7 12  1  0  0  0  0
  8  9  1  0  0  0  0
  9 10  2  0  0  0  0
 10 11  1  0  0  0  0
 11 12  2  0  0  0  0
M  END
>  <CHROM.1>
5.68858715,17.24462501,4.39725269,2.25695093,-0.94654924,-2.02595951

>  <Name>
ligand

>  <RI>
0

>  <Rbt.Current_Directory>
/home/itssahil/PROJECTS/Mol_Feturizer/Test_systems_manuscript/rnas/4lx5

>  <Rbt.Executable>
rbdock ($Id: //depot/dev/client3/rdock/2013.1/src/exe/rbdock.cxx#4 $)

>  <Rbt.Library>
libRbt.so (2013.1, Build901 2013/11/27)

>  <Rbt.Parameter_File>
/export/apps/rDock/src/rDock_2013.1_src/data/scripts/dock_solv.prm

>  <Rbt.Receptor>
prm/pocket_docking_4.prm

>  <SCORE>
-15.0794

>  <SCORE.INTER>
-15.0794

>  <SCORE.INTER.CONST>
1

>  <SCORE.INTER.POLAR>
0

>  <SCORE.INTER.ROT>
0

>  <SCORE.INTER.SOLV>
15.5235

>  <SCORE.INTER.VDW>
-18.8274

>  <SCORE.INTER.norm>
-1.25662

>  <SCORE.INTRA>
0

>  <SCORE.INTRA.DIHEDRAL>
0

>  <SCORE.INTRA.DIHEDRAL.0>
0

>  <SCORE.INTRA.POLAR>
0

>  <SCORE.INTRA.POLAR.0>
0

>  <SCORE.INTRA.REPUL>
0

>  <SCORE.INTRA.REPUL.0>
0

>  <SCORE.INTRA.SOLV>
0

>  <SCORE.INTRA.SOLV.lig_0>
-48.1583

>  <SCORE.INTRA.VDW>
0

>  <SCORE.INTRA.VDW.0>
0

>  <SCORE.INTRA.norm>
0

>  <SCORE.RESTR>
0

>  <SCORE.RESTR.CAVITY>
0

>  <SCORE.RESTR.norm>
0

>  <SCORE.SYSTEM>
0

>  <SCORE.SYSTEM.CONST>
0

>  <SCORE.SYSTEM.DIHEDRAL>
0

>  <SCORE.SYSTEM.SOLV>
0

>  <SCORE.SYSTEM.norm>
0

>  <SCORE.heavy>
12

>  <SCORE.norm>
-1.25662

>  <RMSD>
3.046

$$$$
ligand
 OpenBabel02271912143D
libRbt.so/2013.1/901 2013/11/27
 12 13  0  0  0  0  0  0  0  0999 V2000
    4.6904   15.3898    3.9488 C   0  0  0  0  0  0  0  0  0  0  0  0
    6.0112   17.0211    2.9344 C   0  0  0  0  0  0  0  0  0  0  0  0
    4.0276   14.2404    3.8566 N   0  0  0  0  0  0  0  0  0  0  0  0
    6.6368   17.5492    1.8766 N   0  0  0  0  0  0  0  0  0  0  0  0
    5.3171   15.8780    2.8560 N   0  0  0  0  0  0  0  0  0  0  0  0
    4.7495   16.0346    5.1351 N   0  0  0  0  0  0  0  0  0  0  0  0
    6.8355   19.5924    5.4596 N   0  0  0  0  0  0  0  0  0  0  0  0
    6.1766   19.0518    6.5746 C   0  0  0  0  0  0  0  0  0  0  0  0
    5.4578   17.8398    6.4522 N   0  0  0  0  0  0  0  0  0  0  0  0
    5.4303   17.2008    5.2627 C   0  0  0  0  0  0  0  0  0  0  0  0
    6.0913   17.7204    4.1450 C   0  0  0  0  0  0  0  0  0  0  0  0
    6.8004   18.9176    4.2233 C   0  0  0  0  0  0  0  0  0  0  0  0
  1  3  1  0  0  0  0
  1  5  1  0  0  0  0
  1  6  2  0  0  0  0
  2  5  2  0  0  0  0
  2 11  1  0  0  0  0
  2  4  1  0  0  0  0
  6 10  1  0  0  0  0
  7  8  2  0  0  0  0
  7 12  1  0  0  0  0
  8  9  1  0  0  0  0
  9 10  2  0  0  0  0
 10 11  1  0  0  0  0
 11 12  2  0  0  0  0
M  END
>  <CHROM.1>
5.67146185,17.17635838,4.38445284,2.26139930,-0.97140226,-2.01942653

>  <Name>
ligand

>  <RI>
0

>  <Rbt.Current_Directory>
/home/itssahil/PROJECTS/Mol_Feturizer/Test_systems_manuscript/rnas/4lx5

>  <Rbt.Executable>
rbdock ($Id: //depot/dev/client3/rdock/2013.1/src/exe/rbdock.cxx#4 $)

>  <Rbt.Library>
libRbt.so (2013.1, Build901 2013/11/27)

>  <Rbt.Parameter_File>
/export/apps/rDock/src/rDock_2013.1_src/data/scripts/dock_solv.prm

>  <Rbt.Receptor>
prm/pocket_docking_5.prm

>  <SCORE>
-15.0412

>  <SCORE.INTER>
-15.0412

>  <SCORE.INTER.CONST>
1

>  <SCORE.INTER.POLAR>
0

>  <SCORE.INTER.ROT>
0

>  <SCORE.INTER.SOLV>
15.6764

>  <SCORE.INTER.VDW>
-18.853

>  <SCORE.INTER.norm>
-1.25344

>  <SCORE.INTRA>
0

>  <SCORE.INTRA.DIHEDRAL>
0

>  <SCORE.INTRA.DIHEDRAL.0>
0

>  <SCORE.INTRA.POLAR>
0

>  <SCORE.INTRA.POLAR.0>
0

>  <SCORE.INTRA.REPUL>
0

>  <SCORE.INTRA.REPUL.0>
0

>  <SCORE.INTRA.SOLV>
0

>  <SCORE.INTRA.SOLV.lig_0>
-48.1583

>  <SCORE.INTRA.VDW>
0

>  <SCORE.INTRA.VDW.0>
0

>  <SCORE.INTRA.norm>
0

>  <SCORE.RESTR>
0

>  <SCORE.RESTR.CAVITY>
0

>  <SCORE.RESTR.norm>
0

>  <SCORE.SYSTEM>
0

>  <SCORE.SYSTEM.CONST>
0

>  <SCORE.SYSTEM.DIHEDRAL>
0

>  <SCORE.SYSTEM.SOLV>
0

>  <SCORE.SYSTEM.norm>
0

>  <SCORE.heavy>
12

>  <SCORE.norm>
-1.25344

>  <RMSD>
3.046

$$$$
ligand
 OpenBabel02271912143D
libRbt.so/2013.1/901 2013/11/27
 12 13  0  0  0  0  0  0  0  0999 V2000
    4.4601   15.3617    3.8247 C   0  0  0  0  0  0  0  0  0  0  0  0
    5.8680   16.9426    2.8484 C   0  0  0  0  0  0  0  0  0  0  0  0
    3.7247   14.2603    3.7023 N   0  0  0  0  0  0  0  0  0  0  0  0
    6.5117   17.4683    1.8003 N   0  0  0  0  0  0  0  0  0  0  0  0
    5.1020   15.8489    2.7404 N   0  0  0  0  0  0  0  0  0  0  0  0
    4.5756   15.9581    5.0321 N   0  0  0  0  0  0  0  0  0  0  0  0
    6.8867   19.3639    5.4498 N   0  0  0  0  0  0  0  0  0  0  0  0
    6.2097   18.8257    6.5550 C   0  0  0  0  0  0  0  0  0  0  0  0
    5.4141   17.6664    6.4010 N   0  0  0  0  0  0  0  0  0  0  0  0
    5.3305   17.0739    5.1903 C   0  0  0  0  0  0  0  0  0  0  0  0
    6.0082   17.5912    4.0815 C   0  0  0  0  0  0  0  0  0  0  0  0
    6.7926   18.7379    4.1910 C   0  0  0  0  0  0  0  0  0  0  0  0
  1  3  1  0  0  0  0
  1  5  1  0  0  0  0
  1  6  2  0  0  0  0
  2  5  2  0  0  0  0
  2 11  1  0  0  0  0
  2  4  1  0  0  0  0
  6 10  1  0  0  0  0
  7  8  2  0  0  0  0
  7 12  1  0  0  0  0
  8  9  1  0  0  0  0
  9 10  2  0  0  0  0
 10 11  1  0  0  0  0
 11 12  2  0  0  0  0
M  END
>  <CHROM.1>
5.55796570,17.06619604,4.30806135,2.32633459,-0.91903045,-1.93093405

>  <Name>
ligand

>  <RI>
0

>  <Rbt.Current_Directory>
/home/itssahil/PROJECTS/Mol_Feturizer/Test_systems_manuscript/rnas/4lx5

>  <Rbt.Executable>
rbdock ($Id: //depot/dev/client3/rdock/2013.1/src/exe/rbdock.cxx#4 $)

>  <Rbt.Library>
libRbt.so (2013.1, Build901 2013/11/27)

>  <Rbt.Parameter_File>
/export/apps/rDock/src/rDock_2013.1_src/data/scripts/dock_solv.prm

>  <Rbt.Receptor>
prm/pocket_docking_5.prm

>  <SCORE>
-14.7453

>  <SCORE.INTER>
-14.7453

>  <SCORE.INTER.CONST>
1

>  <SCORE.INTER.POLAR>
0

>  <SCORE.INTER.ROT>
0

>  <SCORE.INTER.SOLV>
14.2865

>  <SCORE.INTER.VDW>
-18.1923

>  <SCORE.INTER.norm>
-1.22877

>  <SCORE.INTRA>
0

>  <SCORE.INTRA.DIHEDRAL>
0

>  <SCORE.INTRA.DIHEDRAL.0>
0

>  <SCORE.INTRA.POLAR>
0

>  <SCORE.INTRA.POLAR.0>
0

>  <SCORE.INTRA.REPUL>
0

>  <SCORE.INTRA.REPUL.0>
0

>  <SCORE.INTRA.SOLV>
0

>  <SCORE.INTRA.SOLV.lig_0>
-48.1583

>  <SCORE.INTRA.VDW>
0

>  <SCORE.INTRA.VDW.0>
0

>  <SCORE.INTRA.norm>
0

>  <SCORE.RESTR>
0

>  <SCORE.RESTR.CAVITY>
0

>  <SCORE.RESTR.norm>
0

>  <SCORE.SYSTEM>
0

>  <SCORE.SYSTEM.CONST>
0

>  <SCORE.SYSTEM.DIHEDRAL>
0

>  <SCORE.SYSTEM.SOLV>
0

>  <SCORE.SYSTEM.norm>
0

>  <SCORE.heavy>
12

>  <SCORE.norm>
-1.22877

>  <RMSD>
3.046

$$$$
ligand
 OpenBabel02271912143D
libRbt.so/2013.1/901 2013/11/27
 12 13  0  0  0  0  0  0  0  0999 V2000
    4.6895   15.3912    3.9481 C   0  0  0  0  0  0  0  0  0  0  0  0
    6.0112   17.0228    2.9352 C   0  0  0  0  0  0  0  0  0  0  0  0
    4.0265   14.2420    3.8550 N   0  0  0  0  0  0  0  0  0  0  0  0
    6.6374   17.5512    1.8780 N   0  0  0  0  0  0  0  0  0  0  0  0
    5.3169   15.8798    2.8559 N   0  0  0  0  0  0  0  0  0  0  0  0
    4.7480   16.0354    5.1347 N   0  0  0  0  0  0  0  0  0  0  0  0
    6.8345   19.5927    5.4621 N   0  0  0  0  0  0  0  0  0  0  0  0
    6.1749   19.0517    6.5765 C   0  0  0  0  0  0  0  0  0  0  0  0
    5.4560   17.8399    6.4531 N   0  0  0  0  0  0  0  0  0  0  0  0
    5.4290   17.2015    5.2633 C   0  0  0  0  0  0  0  0  0  0  0  0
    6.0907   17.7215    4.1462 C   0  0  0  0  0  0  0  0  0  0  0  0
    6.7999   18.9185    4.2254 C   0  0  0  0  0  0  0  0  0  0  0  0
  1  3  1  0  0  0  0
  1  5  1  0  0  0  0
  1  6  2  0  0  0  0
  2  5  2  0  0  0  0
  2 11  1  0  0  0  0
  2  4  1  0  0  0  0
  6 10  1  0  0  0  0
  7  8  2  0  0  0  0
  7 12  1  0  0  0  0
  8  9  1  0  0  0  0
  9 10  2  0  0  0  0
 10 11  1  0  0  0  0
 11 12  2  0  0  0  0
M  END
>  <CHROM.1>
5.67063389,17.17738263,4.38516268,2.26066547,-0.97100961,-2.01954532

>  <Name>
ligand

>  <RI>
0

>  <Rbt.Current_Directory>
/home/itssahil/PROJECTS/Mol_Feturizer/Test_systems_manuscript/rnas/4lx5

>  <Rbt.Executable>
rbdock ($Id: //depot/dev/client3/rdock/2013.1/src/exe/rbdock.cxx#4 $)

>  <Rbt.Library>
libRbt.so (2013.1, Build901 2013/11/27)

>  <Rbt.Parameter_File>
/export/apps/rDock/src/rDock_2013.1_src/data/scripts/dock_solv.prm

>  <Rbt.Receptor>
prm/pocket_docking_5.prm

>  <SCORE>
-15.0408

>  <SCORE.INTER>
-15.0408

>  <SCORE.INTER.CONST>
1

>  <SCORE.INTER.POLAR>
0

>  <SCORE.INTER.ROT>
0

>  <SCORE.INTER.SOLV>
15.6696

>  <SCORE.INTER.VDW>
-18.8504

>  <SCORE.INTER.norm>
-1.2534

>  <SCORE.INTRA>
0

>  <SCORE.INTRA.DIHEDRAL>
0

>  <SCORE.INTRA.DIHEDRAL.0>
0

>  <SCORE.INTRA.POLAR>
0

>  <SCORE.INTRA.POLAR.0>
0

>  <SCORE.INTRA.REPUL>
0

>  <SCORE.INTRA.REPUL.0>
0

>  <SCORE.INTRA.SOLV>
0

>  <SCORE.INTRA.SOLV.lig_0>
-48.1583

>  <SCORE.INTRA.VDW>
0

>  <SCORE.INTRA.VDW.0>
0

>  <SCORE.INTRA.norm>
0

>  <SCORE.RESTR>
0

>  <SCORE.RESTR.CAVITY>
0

>  <SCORE.RESTR.norm>
0

>  <SCORE.SYSTEM>
0

>  <SCORE.SYSTEM.CONST>
0

>  <SCORE.SYSTEM.DIHEDRAL>
0

>  <SCORE.SYSTEM.SOLV>
0

>  <SCORE.SYSTEM.norm>
0

>  <SCORE.heavy>
12

>  <SCORE.norm>
-1.2534

>  <RMSD>
3.046

$$$$
ligand
 OpenBabel02271912143D
libRbt.so/2013.1/901 2013/11/27
 12 13  0  0  0  0  0  0  0  0999 V2000
    4.6954   15.4744    3.9580 C   0  0  0  0  0  0  0  0  0  0  0  0
    6.0599   17.0803    2.9610 C   0  0  0  0  0  0  0  0  0  0  0  0
    4.0137   14.3368    3.8577 N   0  0  0  0  0  0  0  0  0  0  0  0
    6.7104   17.5953    1.9119 N   0  0  0  0  0  0  0  0  0  0  0  0
    5.3469   15.9495    2.8740 N   0  0  0  0  0  0  0  0  0  0  0  0
    4.7481   16.1202    5.1441 N   0  0  0  0  0  0  0  0  0  0  0  0
    6.8918   19.6411    5.4944 N   0  0  0  0  0  0  0  0  0  0  0  0
    6.2068   19.1143    6.6002 C   0  0  0  0  0  0  0  0  0  0  0  0
    5.4686   17.9150    6.4689 N   0  0  0  0  0  0  0  0  0  0  0  0
    5.4476   17.2744    5.2801 C   0  0  0  0  0  0  0  0  0  0  0  0
    6.1342   17.7803    4.1716 C   0  0  0  0  0  0  0  0  0  0  0  0
    6.8632   18.9649    4.2587 C   0  0  0  0  0  0  0  0  0  0  0  0
  1  3  1  0  0  0  0
  1  5  1  0  0  0  0
  1  6  2  0  0  0  0
  2  5  2  0  0  0  0
  2 11  1  0  0  0  0
  2  4  1  0  0  0  0
  6 10  1  0  0  0  0
  7  8  2  0  0  0  0
  7 12  1  0  0  0  0
  8  9  1  0  0  0  0
  9 10  2  0  0  0  0
 10 11  1  0  0  0  0
 11 12  2  0  0  0  0
M  END
>  <CHROM.1>
5.70130480,17.24413066,4.40560151,2.25148286,-0.94893833,-2.02920939

>  <Name>
ligand

>  <RI>
0

>  <Rbt.Current_Directory>
/home/itssahil/PROJECTS/Mol_Feturizer/Test_systems_manuscript/rnas/4lx5

>  <Rbt.Executable>
rbdock ($Id: //depot/dev/client3/rdock/2013.1/src/exe/rbdock.cxx#4 $)

>  <Rbt.Library>
libRbt.so (2013.1, Build901 2013/11/27)

>  <Rbt.Parameter_File>
/export/apps/rDock/src/rDock_2013.1_src/data/scripts/dock_solv.prm

>  <Rbt.Receptor>
prm/pocket_docking_6.prm

>  <SCORE>
-15.0717

>  <SCORE.INTER>
-15.0717

>  <SCORE.INTER.CONST>
1

>  <SCORE.INTER.POLAR>
0

>  <SCORE.INTER.ROT>
0

>  <SCORE.INTER.SOLV>
15.6525

>  <SCORE.INTER.VDW>
-18.8653

>  <SCORE.INTER.norm>
-1.25598

>  <SCORE.INTRA>
0

>  <SCORE.INTRA.DIHEDRAL>
0

>  <SCORE.INTRA.DIHEDRAL.0>
0

>  <SCORE.INTRA.POLAR>
0

>  <SCORE.INTRA.POLAR.0>
0

>  <SCORE.INTRA.REPUL>
0

>  <SCORE.INTRA.REPUL.0>
0

>  <SCORE.INTRA.SOLV>
0

>  <SCORE.INTRA.SOLV.lig_0>
-48.1583

>  <SCORE.INTRA.VDW>
0

>  <SCORE.INTRA.VDW.0>
0

>  <SCORE.INTRA.norm>
0

>  <SCORE.RESTR>
0

>  <SCORE.RESTR.CAVITY>
0

>  <SCORE.RESTR.norm>
0

>  <SCORE.SYSTEM>
0

>  <SCORE.SYSTEM.CONST>
0

>  <SCORE.SYSTEM.DIHEDRAL>
0

>  <SCORE.SYSTEM.SOLV>
0

>  <SCORE.SYSTEM.norm>
0

>  <SCORE.heavy>
12

>  <SCORE.norm>
-1.25598

>  <RMSD>
3.046

$$$$
ligand
 OpenBabel02271912143D
libRbt.so/2013.1/901 2013/11/27
 12 13  0  0  0  0  0  0  0  0999 V2000
    4.6914   15.3858    3.9456 C   0  0  0  0  0  0  0  0  0  0  0  0
    6.0100   17.0207    2.9339 C   0  0  0  0  0  0  0  0  0  0  0  0
    4.0322   14.2344    3.8522 N   0  0  0  0  0  0  0  0  0  0  0  0
    6.6367   17.5501    1.8775 N   0  0  0  0  0  0  0  0  0  0  0  0
    5.3195   15.8754    2.8543 N   0  0  0  0  0  0  0  0  0  0  0  0
    4.7454   16.0314    5.1317 N   0  0  0  0  0  0  0  0  0  0  0  0
    6.8200   19.5956    5.4601 N   0  0  0  0  0  0  0  0  0  0  0  0
    6.1597   19.0535    6.5736 C   0  0  0  0  0  0  0  0  0  0  0  0
    5.4449   17.8393    6.4498 N   0  0  0  0  0  0  0  0  0  0  0  0
    5.4224   17.1997    5.2606 C   0  0  0  0  0  0  0  0  0  0  0  0
    6.0848   17.7207    4.1444 C   0  0  0  0  0  0  0  0  0  0  0  0
    6.7901   18.9201    4.2240 C   0  0  0  0  0  0  0  0  0  0  0  0
  1  3  1  0  0  0  0
  1  5  1  0  0  0  0
  1  6  2  0  0  0  0
  2  5  2  0  0  0  0
  2 11  1  0  0  0  0
  2  4  1  0  0  0  0
  6 10  1  0  0  0  0
  7  8  2  0  0  0  0
  7 12  1  0  0  0  0
  8  9  1  0  0  0  0
  9 10  2  0  0  0  0
 10 11  1  0  0  0  0
 11 12  2  0  0  0  0
M  END
>  <CHROM.1>
5.66595495,17.17553810,4.38298912,2.25489529,-0.97293990,-2.02526362

>  <Name>
ligand

>  <RI>
0

>  <Rbt.Current_Directory>
/home/itssahil/PROJECTS/Mol_Feturizer/Test_systems_manuscript/rnas/4lx5

>  <Rbt.Executable>
rbdock ($Id: //depot/dev/client3/rdock/2013.1/src/exe/rbdock.cxx#4 $)

>  <Rbt.Library>
libRbt.so (2013.1, Build901 2013/11/27)

>  <Rbt.Parameter_File>
/export/apps/rDock/src/rDock_2013.1_src/data/scripts/dock_solv.prm

>  <Rbt.Receptor>
prm/pocket_docking_7.prm

>  <SCORE>
-15.0382

>  <SCORE.INTER>
-15.0382

>  <SCORE.INTER.CONST>
1

>  <SCORE.INTER.POLAR>
0

>  <SCORE.INTER.ROT>
0

>  <SCORE.INTER.SOLV>
15.6994

>  <SCORE.INTER.VDW>
-18.8586

>  <SCORE.INTER.norm>
-1.25318

>  <SCORE.INTRA>
0

>  <SCORE.INTRA.DIHEDRAL>
0

>  <SCORE.INTRA.DIHEDRAL.0>
0

>  <SCORE.INTRA.POLAR>
0

>  <SCORE.INTRA.POLAR.0>
0

>  <SCORE.INTRA.REPUL>
0

>  <SCORE.INTRA.REPUL.0>
0

>  <SCORE.INTRA.SOLV>
0

>  <SCORE.INTRA.SOLV.lig_0>
-48.1583

>  <SCORE.INTRA.VDW>
0

>  <SCORE.INTRA.VDW.0>
0

>  <SCORE.INTRA.norm>
0

>  <SCORE.RESTR>
0

>  <SCORE.RESTR.CAVITY>
0

>  <SCORE.RESTR.norm>
0

>  <SCORE.SYSTEM>
0

>  <SCORE.SYSTEM.CONST>
0

>  <SCORE.SYSTEM.DIHEDRAL>
0

>  <SCORE.SYSTEM.SOLV>
0

>  <SCORE.SYSTEM.norm>
0

>  <SCORE.heavy>
12

>  <SCORE.norm>
-1.25318

>  <RMSD>
3.046

$$$$
ligand
 OpenBabel02271912143D
libRbt.so/2013.1/901 2013/11/27
 12 13  0  0  0  0  0  0  0  0999 V2000
    4.6859   15.3853    3.9433 C   0  0  0  0  0  0  0  0  0  0  0  0
    6.0192   17.0096    2.9339 C   0  0  0  0  0  0  0  0  0  0  0  0
    4.0186   14.2387    3.8491 N   0  0  0  0  0  0  0  0  0  0  0  0
    6.6526   17.5335    1.8788 N   0  0  0  0  0  0  0  0  0  0  0  0
    5.3205   15.8694    2.8533 N   0  0  0  0  0  0  0  0  0  0  0  0
    4.7415   16.0314    5.1291 N   0  0  0  0  0  0  0  0  0  0  0  0
    6.8411   19.5806    5.4602 N   0  0  0  0  0  0  0  0  0  0  0  0
    6.1740   19.0443    6.5723 C   0  0  0  0  0  0  0  0  0  0  0  0
    5.4506   17.8353    6.4477 N   0  0  0  0  0  0  0  0  0  0  0  0
    5.4267   17.1949    5.2589 C   0  0  0  0  0  0  0  0  0  0  0  0
    6.0958   17.7101    4.1440 C   0  0  0  0  0  0  0  0  0  0  0  0
    6.8097   18.9044    4.2245 C   0  0  0  0  0  0  0  0  0  0  0  0
  1  3  1  0  0  0  0
  1  5  1  0  0  0  0
  1  6  2  0  0  0  0
  2  5  2  0  0  0  0
  2 11  1  0  0  0  0
  2  4  1  0  0  0  0
  6 10  1  0  0  0  0
  7  8  2  0  0  0  0
  7 12  1  0  0  0  0
  8  9  1  0  0  0  0
  9 10  2  0  0  0  0
 10 11  1  0  0  0  0
 11 12  2  0  0  0  0
M  END
>  <CHROM.1>
5.67237511,17.16820595,4.38195801,2.25628453,-0.96519158,-2.02493857

>  <Name>
ligand

>  <RI>
0

>  <Rbt.Current_Directory>
/home/itssahil/PROJECTS/Mol_Feturizer/Test_systems_manuscript/rnas/4lx5

>  <Rbt.Executable>
rbdock ($Id: //depot/dev/client3/rdock/2013.1/src/exe/rbdock.cxx#4 $)

>  <Rbt.Library>
libRbt.so (2013.1, Build901 2013/11/27)

>  <Rbt.Parameter_File>
/export/apps/rDock/src/rDock_2013.1_src/data/scripts/dock_solv.prm

>  <Rbt.Receptor>
prm/pocket_docking_7.prm

>  <SCORE>
-15.0047

>  <SCORE.INTER>
-15.0047

>  <SCORE.INTER.CONST>
1

>  <SCORE.INTER.POLAR>
0

>  <SCORE.INTER.ROT>
0

>  <SCORE.INTER.SOLV>
15.6474

>  <SCORE.INTER.VDW>
-18.819

>  <SCORE.INTER.norm>
-1.25039

>  <SCORE.INTRA>
0

>  <SCORE.INTRA.DIHEDRAL>
0

>  <SCORE.INTRA.DIHEDRAL.0>
0

>  <SCORE.INTRA.POLAR>
0

>  <SCORE.INTRA.POLAR.0>
0

>  <SCORE.INTRA.REPUL>
0

>  <SCORE.INTRA.REPUL.0>
0

>  <SCORE.INTRA.SOLV>
0

>  <SCORE.INTRA.SOLV.lig_0>
-48.1583

>  <SCORE.INTRA.VDW>
0

>  <SCORE.INTRA.VDW.0>
0

>  <SCORE.INTRA.norm>
0

>  <SCORE.RESTR>
0

>  <SCORE.RESTR.CAVITY>
0

>  <SCORE.RESTR.norm>
0

>  <SCORE.SYSTEM>
0

>  <SCORE.SYSTEM.CONST>
0

>  <SCORE.SYSTEM.DIHEDRAL>
0

>  <SCORE.SYSTEM.SOLV>
0

>  <SCORE.SYSTEM.norm>
0

>  <SCORE.heavy>
12

>  <SCORE.norm>
-1.25039

>  <RMSD>
3.046

$$$$
ligand
 OpenBabel02271912143D
libRbt.so/2013.1/901 2013/11/27
 12 13  0  0  0  0  0  0  0  0999 V2000
    4.6790   15.4751    3.9574 C   0  0  0  0  0  0  0  0  0  0  0  0
    6.0404   17.0774    2.9504 C   0  0  0  0  0  0  0  0  0  0  0  0
    3.9945   14.3387    3.8625 N   0  0  0  0  0  0  0  0  0  0  0  0
    6.6853   17.5901    1.8967 N   0  0  0  0  0  0  0  0  0  0  0  0
    5.3246   15.9479    2.8689 N   0  0  0  0  0  0  0  0  0  0  0  0
    4.7404   16.1220    5.1425 N   0  0  0  0  0  0  0  0  0  0  0  0
    6.8931   19.6390    5.4759 N   0  0  0  0  0  0  0  0  0  0  0  0
    6.2140   19.1146    6.5865 C   0  0  0  0  0  0  0  0  0  0  0  0
    5.4726   17.9166    6.4610 N   0  0  0  0  0  0  0  0  0  0  0  0
    5.4429   17.2749    5.2730 C   0  0  0  0  0  0  0  0  0  0  0  0
    6.1236   17.7783    4.1598 C   0  0  0  0  0  0  0  0  0  0  0  0
    6.8554   18.9616    4.2411 C   0  0  0  0  0  0  0  0  0  0  0  0
  1  3  1  0  0  0  0
  1  5  1  0  0  0  0
  1  6  2  0  0  0  0
  2  5  2  0  0  0  0
  2 11  1  0  0  0  0
  2  4  1  0  0  0  0
  6 10  1  0  0  0  0
  7  8  2  0  0  0  0
  7 12  1  0  0  0  0
  8  9  1  0  0  0  0
  9 10  2  0  0  0  0
 10 11  1  0  0  0  0
 11 12  2  0  0  0  0
M  END
>  <CHROM.1>
5.69115932,17.24330592,4.39695750,2.26260621,-0.94992592,-2.02114726

>  <Name>
ligand

>  <RI>
0

>  <Rbt.Current_Directory>
/home/itssahil/PROJECTS/Mol_Feturizer/Test_systems_manuscript/rnas/4lx5

>  <Rbt.Executable>
rbdock ($Id: //depot/dev/client3/rdock/2013.1/src/exe/rbdock.cxx#4 $)

>  <Rbt.Library>
libRbt.so (2013.1, Build901 2013/11/27)

>  <Rbt.Parameter_File>
/export/apps/rDock/src/rDock_2013.1_src/data/scripts/dock_solv.prm

>  <Rbt.Receptor>
prm/pocket_docking_3.prm

>  <SCORE>
-15.0846

>  <SCORE.INTER>
-15.0846

>  <SCORE.INTER.CONST>
1

>  <SCORE.INTER.POLAR>
0

>  <SCORE.INTER.ROT>
0

>  <SCORE.INTER.SOLV>
15.5447

>  <SCORE.INTER.VDW>
-18.8379

>  <SCORE.INTER.norm>
-1.25705

>  <SCORE.INTRA>
0

>  <SCORE.INTRA.DIHEDRAL>
0

>  <SCORE.INTRA.DIHEDRAL.0>
0

>  <SCORE.INTRA.POLAR>
0

>  <SCORE.INTRA.POLAR.0>
0

>  <SCORE.INTRA.REPUL>
0

>  <SCORE.INTRA.REPUL.0>
0

>  <SCORE.INTRA.SOLV>
0

>  <SCORE.INTRA.SOLV.lig_0>
-48.1583

>  <SCORE.INTRA.VDW>
0

>  <SCORE.INTRA.VDW.0>
0

>  <SCORE.INTRA.norm>
0

>  <SCORE.RESTR>
0

>  <SCORE.RESTR.CAVITY>
0

>  <SCORE.RESTR.norm>
0

>  <SCORE.SYSTEM>
0

>  <SCORE.SYSTEM.CONST>
0

>  <SCORE.SYSTEM.DIHEDRAL>
0

>  <SCORE.SYSTEM.SOLV>
0

>  <SCORE.SYSTEM.norm>
0

>  <SCORE.heavy>
12

>  <SCORE.norm>
-1.25705

>  <RMSD>
3.047

$$$$
ligand
 OpenBabel02271912143D
libRbt.so/2013.1/901 2013/11/27
 12 13  0  0  0  0  0  0  0  0999 V2000
    4.6954   15.4723    3.9639 C   0  0  0  0  0  0  0  0  0  0  0  0
    6.0521   17.0795    2.9584 C   0  0  0  0  0  0  0  0  0  0  0  0
    4.0139   14.3342    3.8678 N   0  0  0  0  0  0  0  0  0  0  0  0
    6.6953   17.5952    1.9051 N   0  0  0  0  0  0  0  0  0  0  0  0
    5.3394   15.9482    2.8758 N   0  0  0  0  0  0  0  0  0  0  0  0
    4.7556   16.1178    5.1498 N   0  0  0  0  0  0  0  0  0  0  0  0
    6.8990   19.6402    5.4869 N   0  0  0  0  0  0  0  0  0  0  0  0
    6.2218   19.1125    6.5971 C   0  0  0  0  0  0  0  0  0  0  0  0
    5.4836   17.9127    6.4703 N   0  0  0  0  0  0  0  0  0  0  0  0
    5.4551   17.2725    5.2815 C   0  0  0  0  0  0  0  0  0  0  0  0
    6.1340   17.7791    4.1686 C   0  0  0  0  0  0  0  0  0  0  0  0
    6.8627   18.9642    4.2512 C   0  0  0  0  0  0  0  0  0  0  0  0
  1  3  1  0  0  0  0
  1  5  1  0  0  0  0
  1  6  2  0  0  0  0
  2  5  2  0  0  0  0
  2 11  1  0  0  0  0
  2  4  1  0  0  0  0
  6 10  1  0  0  0  0
  7  8  2  0  0  0  0
  7 12  1  0  0  0  0
  8  9  1  0  0  0  0
  9 10  2  0  0  0  0
 10 11  1  0  0  0  0
 11 12  2  0  0  0  0
M  END
>  <CHROM.1>
5.70303829,17.24264292,4.40534207,2.26123045,-0.95249641,-2.02099311

>  <Name>
ligand

>  <RI>
0

>  <Rbt.Current_Directory>
/home/itssahil/PROJECTS/Mol_Feturizer/Test_systems_manuscript/rnas/4lx5

>  <Rbt.Executable>
rbdock ($Id: //depot/dev/client3/rdock/2013.1/src/exe/rbdock.cxx#4 $)

>  <Rbt.Library>
libRbt.so (2013.1, Build901 2013/11/27)

>  <Rbt.Parameter_File>
/export/apps/rDock/src/rDock_2013.1_src/data/scripts/dock_solv.prm

>  <Rbt.Receptor>
prm/pocket_docking_3.prm

>  <SCORE>
-15.0761

>  <SCORE.INTER>
-15.0761

>  <SCORE.INTER.CONST>
1

>  <SCORE.INTER.POLAR>
0

>  <SCORE.INTER.ROT>
0

>  <SCORE.INTER.SOLV>
15.6475

>  <SCORE.INTER.VDW>
-18.8666

>  <SCORE.INTER.norm>
-1.25634

>  <SCORE.INTRA>
0

>  <SCORE.INTRA.DIHEDRAL>
0

>  <SCORE.INTRA.DIHEDRAL.0>
0

>  <SCORE.INTRA.POLAR>
0

>  <SCORE.INTRA.POLAR.0>
0

>  <SCORE.INTRA.REPUL>
0

>  <SCORE.INTRA.REPUL.0>
0

>  <SCORE.INTRA.SOLV>
0

>  <SCORE.INTRA.SOLV.lig_0>
-48.1583

>  <SCORE.INTRA.VDW>
0

>  <SCORE.INTRA.VDW.0>
0

>  <SCORE.INTRA.norm>
0

>  <SCORE.RESTR>
0

>  <SCORE.RESTR.CAVITY>
0

>  <SCORE.RESTR.norm>
0

>  <SCORE.SYSTEM>
0

>  <SCORE.SYSTEM.CONST>
0

>  <SCORE.SYSTEM.DIHEDRAL>
0

>  <SCORE.SYSTEM.SOLV>
0

>  <SCORE.SYSTEM.norm>
0

>  <SCORE.heavy>
12

>  <SCORE.norm>
-1.25634

>  <RMSD>
3.047

$$$$
ligand
 OpenBabel02271912143D
libRbt.so/2013.1/901 2013/11/27
 12 13  0  0  0  0  0  0  0  0999 V2000
    4.6799   15.4620    3.9580 C   0  0  0  0  0  0  0  0  0  0  0  0
    6.0424   17.0595    2.9448 C   0  0  0  0  0  0  0  0  0  0  0  0
    3.9964   14.3247    3.8681 N   0  0  0  0  0  0  0  0  0  0  0  0
    6.6893   17.5666    1.8896 N   0  0  0  0  0  0  0  0  0  0  0  0
    5.3276   15.9291    2.8683 N   0  0  0  0  0  0  0  0  0  0  0  0
    4.7384   16.1156    5.1396 N   0  0  0  0  0  0  0  0  0  0  0  0
    6.8881   19.6359    5.4577 N   0  0  0  0  0  0  0  0  0  0  0  0
    6.2071   19.1173    6.5698 C   0  0  0  0  0  0  0  0  0  0  0  0
    5.4667   17.9181    6.4495 N   0  0  0  0  0  0  0  0  0  0  0  0
    5.4399   17.2698    5.2651 C   0  0  0  0  0  0  0  0  0  0  0  0
    6.1227   17.7673    4.1504 C   0  0  0  0  0  0  0  0  0  0  0  0
    6.8535   18.9515    4.2266 C   0  0  0  0  0  0  0  0  0  0  0  0
  1  3  1  0  0  0  0
  1  5  1  0  0  0  0
  1  6  2  0  0  0  0
  2  5  2  0  0  0  0
  2 11  1  0  0  0  0
  2  4  1  0  0  0  0
  6 10  1  0  0  0  0
  7  8  2  0  0  0  0
  7 12  1  0  0  0  0
  8  9  1  0  0  0  0
  9 10  2  0  0  0  0
 10 11  1  0  0  0  0
 11 12  2  0  0  0  0
M  END
>  <CHROM.1>
5.69002605,17.23332040,4.38973489,2.25884282,-0.94956925,-2.02986916

>  <Name>
ligand

>  <RI>
0

>  <Rbt.Current_Directory>
/home/itssahil/PROJECTS/Mol_Feturizer/Test_systems_manuscript/rnas/4lx5

>  <Rbt.Executable>
rbdock ($Id: //depot/dev/client3/rdock/2013.1/src/exe/rbdock.cxx#4 $)

>  <Rbt.Library>
libRbt.so (2013.1, Build901 2013/11/27)

>  <Rbt.Parameter_File>
/export/apps/rDock/src/rDock_2013.1_src/data/scripts/dock_solv.prm

>  <Rbt.Receptor>
prm/pocket_docking_4.prm

>  <SCORE>
-15.0428

>  <SCORE.INTER>
-15.0428

>  <SCORE.INTER.CONST>
1

>  <SCORE.INTER.POLAR>
0

>  <SCORE.INTER.ROT>
0

>  <SCORE.INTER.SOLV>
15.5783

>  <SCORE.INTER.VDW>
-18.8213

>  <SCORE.INTER.norm>
-1.25356

>  <SCORE.INTRA>
0

>  <SCORE.INTRA.DIHEDRAL>
0

>  <SCORE.INTRA.DIHEDRAL.0>
0

>  <SCORE.INTRA.POLAR>
0

>  <SCORE.INTRA.POLAR.0>
0

>  <SCORE.INTRA.REPUL>
0

>  <SCORE.INTRA.REPUL.0>
0

>  <SCORE.INTRA.SOLV>
0

>  <SCORE.INTRA.SOLV.lig_0>
-48.1583

>  <SCORE.INTRA.VDW>
0

>  <SCORE.INTRA.VDW.0>
0

>  <SCORE.INTRA.norm>
0

>  <SCORE.RESTR>
0

>  <SCORE.RESTR.CAVITY>
0

>  <SCORE.RESTR.norm>
0

>  <SCORE.SYSTEM>
0

>  <SCORE.SYSTEM.CONST>
0

>  <SCORE.SYSTEM.DIHEDRAL>
0

>  <SCORE.SYSTEM.SOLV>
0

>  <SCORE.SYSTEM.norm>
0

>  <SCORE.heavy>
12

>  <SCORE.norm>
-1.25356

>  <RMSD>
3.047

$$$$
ligand
 OpenBabel02271912143D
libRbt.so/2013.1/901 2013/11/27
 12 13  0  0  0  0  0  0  0  0999 V2000
    4.6899   15.3913    3.9523 C   0  0  0  0  0  0  0  0  0  0  0  0
    6.0095   17.0210    2.9337 C   0  0  0  0  0  0  0  0  0  0  0  0
    4.0262   14.2422    3.8626 N   0  0  0  0  0  0  0  0  0  0  0  0
    6.6331   17.5478    1.8742 N   0  0  0  0  0  0  0  0  0  0  0  0
    5.3146   15.8783    2.8578 N   0  0  0  0  0  0  0  0  0  0  0  0
    4.7519   16.0371    5.1380 N   0  0  0  0  0  0  0  0  0  0  0  0
    6.8408   19.5940    5.4550 N   0  0  0  0  0  0  0  0  0  0  0  0
    6.1839   19.0547    6.5718 C   0  0  0  0  0  0  0  0  0  0  0  0
    5.4642   17.8430    6.4520 N   0  0  0  0  0  0  0  0  0  0  0  0
    5.4338   17.2030    5.2631 C   0  0  0  0  0  0  0  0  0  0  0  0
    6.0926   17.7213    4.1436 C   0  0  0  0  0  0  0  0  0  0  0  0
    6.8026   18.9182    4.2193 C   0  0  0  0  0  0  0  0  0  0  0  0
  1  3  1  0  0  0  0
  1  5  1  0  0  0  0
  1  6  2  0  0  0  0
  2  5  2  0  0  0  0
  2 11  1  0  0  0  0
  2  4  1  0  0  0  0
  6 10  1  0  0  0  0
  7  8  2  0  0  0  0
  7 12  1  0  0  0  0
  8  9  1  0  0  0  0
  9 10  2  0  0  0  0
 10 11  1  0  0  0  0
 11 12  2  0  0  0  0
M  END
>  <CHROM.1>
5.67297152,17.17768676,4.38438363,2.26530539,-0.97180928,-2.01705254

>  <Name>
ligand

>  <RI>
0

>  <Rbt.Current_Directory>
/home/itssahil/PROJECTS/Mol_Feturizer/Test_systems_manuscript/rnas/4lx5

>  <Rbt.Executable>
rbdock ($Id: //depot/dev/client3/rdock/2013.1/src/exe/rbdock.cxx#4 $)

>  <Rbt.Library>
libRbt.so (2013.1, Build901 2013/11/27)

>  <Rbt.Parameter_File>
/export/apps/rDock/src/rDock_2013.1_src/data/scripts/dock_solv.prm

>  <Rbt.Receptor>
prm/pocket_docking_5.prm

>  <SCORE>
-15.0409

>  <SCORE.INTER>
-15.0409

>  <SCORE.INTER.CONST>
1

>  <SCORE.INTER.POLAR>
0

>  <SCORE.INTER.ROT>
0

>  <SCORE.INTER.SOLV>
15.6701

>  <SCORE.INTER.VDW>
-18.8506

>  <SCORE.INTER.norm>
-1.25341

>  <SCORE.INTRA>
0

>  <SCORE.INTRA.DIHEDRAL>
0

>  <SCORE.INTRA.DIHEDRAL.0>
0

>  <SCORE.INTRA.POLAR>
0

>  <SCORE.INTRA.POLAR.0>
0

>  <SCORE.INTRA.REPUL>
0

>  <SCORE.INTRA.REPUL.0>
0

>  <SCORE.INTRA.SOLV>
0

>  <SCORE.INTRA.SOLV.lig_0>
-48.1583

>  <SCORE.INTRA.VDW>
0

>  <SCORE.INTRA.VDW.0>
0

>  <SCORE.INTRA.norm>
0

>  <SCORE.RESTR>
0

>  <SCORE.RESTR.CAVITY>
0

>  <SCORE.RESTR.norm>
0

>  <SCORE.SYSTEM>
0

>  <SCORE.SYSTEM.CONST>
0

>  <SCORE.SYSTEM.DIHEDRAL>
0

>  <SCORE.SYSTEM.SOLV>
0

>  <SCORE.SYSTEM.norm>
0

>  <SCORE.heavy>
12

>  <SCORE.norm>
-1.25341

>  <RMSD>
3.047

$$$$
ligand
 OpenBabel02271912143D
libRbt.so/2013.1/901 2013/11/27
 12 13  0  0  0  0  0  0  0  0999 V2000
    4.6834   15.4734    3.9634 C   0  0  0  0  0  0  0  0  0  0  0  0
    6.0377   17.0768    2.9488 C   0  0  0  0  0  0  0  0  0  0  0  0
    3.9990   14.3367    3.8722 N   0  0  0  0  0  0  0  0  0  0  0  0
    6.6760   17.5902    1.8914 N   0  0  0  0  0  0  0  0  0  0  0  0
    5.3222   15.9470    2.8712 N   0  0  0  0  0  0  0  0  0  0  0  0
    4.7516   16.1199    5.1484 N   0  0  0  0  0  0  0  0  0  0  0  0
    6.9042   19.6381    5.4700 N   0  0  0  0  0  0  0  0  0  0  0  0
    6.2321   19.1129    6.5845 C   0  0  0  0  0  0  0  0  0  0  0  0
    5.4907   17.9145    6.4631 N   0  0  0  0  0  0  0  0  0  0  0  0
    5.4542   17.2732    5.2750 C   0  0  0  0  0  0  0  0  0  0  0  0
    6.1279   17.7774    4.1579 C   0  0  0  0  0  0  0  0  0  0  0  0
    6.8595   18.9611    4.2352 C   0  0  0  0  0  0  0  0  0  0  0  0
  1  3  1  0  0  0  0
  1  5  1  0  0  0  0
  1  6  2  0  0  0  0
  2  5  2  0  0  0  0
  2 11  1  0  0  0  0
  2  4  1  0  0  0  0
  6 10  1  0  0  0  0
  7  8  2  0  0  0  0
  7 12  1  0  0  0  0
  8  9  1  0  0  0  0
  9 10  2  0  0  0  0
 10 11  1  0  0  0  0
 11 12  2  0  0  0  0
M  END
>  <CHROM.1>
5.69714759,17.24203380,4.39750535,2.27154905,-0.95304480,-2.01351500

>  <Name>
ligand

>  <RI>
0

>  <Rbt.Current_Directory>
/home/itssahil/PROJECTS/Mol_Feturizer/Test_systems_manuscript/rnas/4lx5

>  <Rbt.Executable>
rbdock ($Id: //depot/dev/client3/rdock/2013.1/src/exe/rbdock.cxx#4 $)

>  <Rbt.Library>
libRbt.so (2013.1, Build901 2013/11/27)

>  <Rbt.Parameter_File>
/export/apps/rDock/src/rDock_2013.1_src/data/scripts/dock_solv.prm

>  <Rbt.Receptor>
prm/pocket_docking_6.prm

>  <SCORE>
-15.0839

>  <SCORE.INTER>
-15.0839

>  <SCORE.INTER.CONST>
1

>  <SCORE.INTER.POLAR>
0

>  <SCORE.INTER.ROT>
0

>  <SCORE.INTER.SOLV>
15.5652

>  <SCORE.INTER.VDW>
-18.8443

>  <SCORE.INTER.norm>
-1.25699

>  <SCORE.INTRA>
0

>  <SCORE.INTRA.DIHEDRAL>
0

>  <SCORE.INTRA.DIHEDRAL.0>
0

>  <SCORE.INTRA.POLAR>
0

>  <SCORE.INTRA.POLAR.0>
0

>  <SCORE.INTRA.REPUL>
0

>  <SCORE.INTRA.REPUL.0>
0

>  <SCORE.INTRA.SOLV>
0

>  <SCORE.INTRA.SOLV.lig_0>
-48.1583

>  <SCORE.INTRA.VDW>
0

>  <SCORE.INTRA.VDW.0>
0

>  <SCORE.INTRA.norm>
0

>  <SCORE.RESTR>
0

>  <SCORE.RESTR.CAVITY>
0

>  <SCORE.RESTR.norm>
0

>  <SCORE.SYSTEM>
0

>  <SCORE.SYSTEM.CONST>
0

>  <SCORE.SYSTEM.DIHEDRAL>
0

>  <SCORE.SYSTEM.SOLV>
0

>  <SCORE.SYSTEM.norm>
0

>  <SCORE.heavy>
12

>  <SCORE.norm>
-1.25699

>  <RMSD>
3.047

$$$$
ligand
 OpenBabel02271912143D
libRbt.so/2013.1/901 2013/11/27
 12 13  0  0  0  0  0  0  0  0999 V2000
    4.6840   15.4631    3.9612 C   0  0  0  0  0  0  0  0  0  0  0  0
    6.0409   17.0636    2.9452 C   0  0  0  0  0  0  0  0  0  0  0  0
    4.0013   14.3251    3.8721 N   0  0  0  0  0  0  0  0  0  0  0  0
    6.6831   17.5730    1.8884 N   0  0  0  0  0  0  0  0  0  0  0  0
    5.3269   15.9325    2.8697 N   0  0  0  0  0  0  0  0  0  0  0  0
    4.7464   16.1149    5.1436 N   0  0  0  0  0  0  0  0  0  0  0  0
    6.8936   19.6370    5.4588 N   0  0  0  0  0  0  0  0  0  0  0  0
    6.2174   19.1159    6.5727 C   0  0  0  0  0  0  0  0  0  0  0  0
    5.4778   17.9161    6.4534 N   0  0  0  0  0  0  0  0  0  0  0  0
    5.4471   17.2696    5.2681 C   0  0  0  0  0  0  0  0  0  0  0  0
    6.1250   17.7696    4.1516 C   0  0  0  0  0  0  0  0  0  0  0  0
    6.8550   18.9544    4.2268 C   0  0  0  0  0  0  0  0  0  0  0  0
  1  3  1  0  0  0  0
  1  5  1  0  0  0  0
  1  6  2  0  0  0  0
  2  5  2  0  0  0  0
  2 11  1  0  0  0  0
  2  4  1  0  0  0  0
  6 10  1  0  0  0  0
  7  8  2  0  0  0  0
  7 12  1  0  0  0  0
  8  9  1  0  0  0  0
  9 10  2  0  0  0  0
 10 11  1  0  0  0  0
 11 12  2  0  0  0  0
M  END
>  <CHROM.1>
5.69389546,17.23478888,4.39177083,2.26401888,-0.95222994,-2.02409015

>  <Name>
ligand

>  <RI>
0

>  <Rbt.Current_Directory>
/home/itssahil/PROJECTS/Mol_Feturizer/Test_systems_manuscript/rnas/4lx5

>  <Rbt.Executable>
rbdock ($Id: //depot/dev/client3/rdock/2013.1/src/exe/rbdock.cxx#4 $)

>  <Rbt.Library>
libRbt.so (2013.1, Build901 2013/11/27)

>  <Rbt.Parameter_File>
/export/apps/rDock/src/rDock_2013.1_src/data/scripts/dock_solv.prm

>  <Rbt.Receptor>
prm/pocket_docking_6.prm

>  <SCORE>
-15.0451

>  <SCORE.INTER>
-15.0451

>  <SCORE.INTER.CONST>
1

>  <SCORE.INTER.POLAR>
0

>  <SCORE.INTER.ROT>
0

>  <SCORE.INTER.SOLV>
15.5971

>  <SCORE.INTER.VDW>
-18.8291

>  <SCORE.INTER.norm>
-1.25376

>  <SCORE.INTRA>
0

>  <SCORE.INTRA.DIHEDRAL>
0

>  <SCORE.INTRA.DIHEDRAL.0>
0

>  <SCORE.INTRA.POLAR>
0

>  <SCORE.INTRA.POLAR.0>
0

>  <SCORE.INTRA.REPUL>
0

>  <SCORE.INTRA.REPUL.0>
0

>  <SCORE.INTRA.SOLV>
0

>  <SCORE.INTRA.SOLV.lig_0>
-48.1583

>  <SCORE.INTRA.VDW>
0

>  <SCORE.INTRA.VDW.0>
0

>  <SCORE.INTRA.norm>
0

>  <SCORE.RESTR>
0

>  <SCORE.RESTR.CAVITY>
0

>  <SCORE.RESTR.norm>
0

>  <SCORE.SYSTEM>
0

>  <SCORE.SYSTEM.CONST>
0

>  <SCORE.SYSTEM.DIHEDRAL>
0

>  <SCORE.SYSTEM.SOLV>
0

>  <SCORE.SYSTEM.norm>
0

>  <SCORE.heavy>
12

>  <SCORE.norm>
-1.25376

>  <RMSD>
3.047

$$$$
ligand
 OpenBabel02271912143D
libRbt.so/2013.1/901 2013/11/27
 12 13  0  0  0  0  0  0  0  0999 V2000
    4.6760   15.4768    3.9558 C   0  0  0  0  0  0  0  0  0  0  0  0
    6.0409   17.0773    2.9507 C   0  0  0  0  0  0  0  0  0  0  0  0
    3.9907   14.3409    3.8601 N   0  0  0  0  0  0  0  0  0  0  0  0
    6.6886   17.5887    1.8981 N   0  0  0  0  0  0  0  0  0  0  0  0
    5.3244   15.9483    2.8684 N   0  0  0  0  0  0  0  0  0  0  0  0
    4.7354   16.1243    5.1406 N   0  0  0  0  0  0  0  0  0  0  0  0
    6.8905   19.6397    5.4765 N   0  0  0  0  0  0  0  0  0  0  0  0
    6.2086   19.1166    6.5859 C   0  0  0  0  0  0  0  0  0  0  0  0
    5.4664   17.9191    6.4596 N   0  0  0  0  0  0  0  0  0  0  0  0
    5.4387   17.2768    5.2719 C   0  0  0  0  0  0  0  0  0  0  0  0
    6.1222   17.7789    4.1598 C   0  0  0  0  0  0  0  0  0  0  0  0
    6.8549   18.9616    4.2420 C   0  0  0  0  0  0  0  0  0  0  0  0
  1  3  1  0  0  0  0
  1  5  1  0  0  0  0
  1  6  2  0  0  0  0
  2  5  2  0  0  0  0
  2 11  1  0  0  0  0
  2  4  1  0  0  0  0
  6 10  1  0  0  0  0
  7  8  2  0  0  0  0
  7 12  1  0  0  0  0
  8  9  1  0  0  0  0
  9 10  2  0  0  0  0
 10 11  1  0  0  0  0
 11 12  2  0  0  0  0
M  END
>  <CHROM.1>
5.68873269,17.24436606,4.39642080,2.25995054,-0.94819810,-2.02392690

>  <Name>
ligand

>  <RI>
0

>  <Rbt.Current_Directory>
/home/itssahil/PROJECTS/Mol_Feturizer/Test_systems_manuscript/rnas/4lx5

>  <Rbt.Executable>
rbdock ($Id: //depot/dev/client3/rdock/2013.1/src/exe/rbdock.cxx#4 $)

>  <Rbt.Library>
libRbt.so (2013.1, Build901 2013/11/27)

>  <Rbt.Parameter_File>
/export/apps/rDock/src/rDock_2013.1_src/data/scripts/dock_solv.prm

>  <Rbt.Receptor>
prm/pocket_docking_6.prm

>  <SCORE>
-15.0813

>  <SCORE.INTER>
-15.0813

>  <SCORE.INTER.CONST>
1

>  <SCORE.INTER.POLAR>
0

>  <SCORE.INTER.ROT>
0

>  <SCORE.INTER.SOLV>
15.5277

>  <SCORE.INTER.VDW>
-18.8301

>  <SCORE.INTER.norm>
-1.25678

>  <SCORE.INTRA>
0

>  <SCORE.INTRA.DIHEDRAL>
0

>  <SCORE.INTRA.DIHEDRAL.0>
0

>  <SCORE.INTRA.POLAR>
0

>  <SCORE.INTRA.POLAR.0>
0

>  <SCORE.INTRA.REPUL>
0

>  <SCORE.INTRA.REPUL.0>
0

>  <SCORE.INTRA.SOLV>
0

>  <SCORE.INTRA.SOLV.lig_0>
-48.1583

>  <SCORE.INTRA.VDW>
0

>  <SCORE.INTRA.VDW.0>
0

>  <SCORE.INTRA.norm>
0

>  <SCORE.RESTR>
0

>  <SCORE.RESTR.CAVITY>
0

>  <SCORE.RESTR.norm>
0

>  <SCORE.SYSTEM>
0

>  <SCORE.SYSTEM.CONST>
0

>  <SCORE.SYSTEM.DIHEDRAL>
0

>  <SCORE.SYSTEM.SOLV>
0

>  <SCORE.SYSTEM.norm>
0

>  <SCORE.heavy>
12

>  <SCORE.norm>
-1.25678

>  <RMSD>
3.047

$$$$
ligand
 OpenBabel02271912143D
libRbt.so/2013.1/901 2013/11/27
 12 13  0  0  0  0  0  0  0  0999 V2000
    4.6892   15.4720    3.9657 C   0  0  0  0  0  0  0  0  0  0  0  0
    6.0396   17.0773    2.9487 C   0  0  0  0  0  0  0  0  0  0  0  0
    4.0057   14.3346    3.8755 N   0  0  0  0  0  0  0  0  0  0  0  0
    6.6749   17.5919    1.8902 N   0  0  0  0  0  0  0  0  0  0  0  0
    5.3249   15.9468    2.8723 N   0  0  0  0  0  0  0  0  0  0  0  0
    4.7596   16.1178    5.1509 N   0  0  0  0  0  0  0  0  0  0  0  0
    6.9096   19.6379    5.4694 N   0  0  0  0  0  0  0  0  0  0  0  0
    6.2407   19.1114    6.5852 C   0  0  0  0  0  0  0  0  0  0  0  0
    5.5001   17.9124    6.4648 N   0  0  0  0  0  0  0  0  0  0  0  0
    5.4614   17.2718    5.2765 C   0  0  0  0  0  0  0  0  0  0  0  0
    6.1320   17.7773    4.1580 C   0  0  0  0  0  0  0  0  0  0  0  0
    6.8626   18.9616    4.2343 C   0  0  0  0  0  0  0  0  0  0  0  0
  1  3  1  0  0  0  0
  1  5  1  0  0  0  0
  1  6  2  0  0  0  0
  2  5  2  0  0  0  0
  2 11  1  0  0  0  0
  2  4  1  0  0  0  0
  6 10  1  0  0  0  0
  7  8  2  0  0  0  0
  7 12  1  0  0  0  0
  8  9  1  0  0  0  0
  9 10  2  0  0  0  0
 10 11  1  0  0  0  0
 11 12  2  0  0  0  0
M  END
>  <CHROM.1>
5.70231066,17.24132470,4.39838841,2.27456700,-0.95494127,-2.01047793

>  <Name>
ligand

>  <RI>
0

>  <Rbt.Current_Directory>
/home/itssahil/PROJECTS/Mol_Feturizer/Test_systems_manuscript/rnas/4lx5

>  <Rbt.Executable>
rbdock ($Id: //depot/dev/client3/rdock/2013.1/src/exe/rbdock.cxx#4 $)

>  <Rbt.Library>
libRbt.so (2013.1, Build901 2013/11/27)

>  <Rbt.Parameter_File>
/export/apps/rDock/src/rDock_2013.1_src/data/scripts/dock_solv.prm

>  <Rbt.Receptor>
prm/pocket_docking_6.prm

>  <SCORE>
-15.0798

>  <SCORE.INTER>
-15.0798

>  <SCORE.INTER.CONST>
1

>  <SCORE.INTER.POLAR>
0

>  <SCORE.INTER.ROT>
0

>  <SCORE.INTER.SOLV>
15.6001

>  <SCORE.INTER.VDW>
-18.8532

>  <SCORE.INTER.norm>
-1.25665

>  <SCORE.INTRA>
0

>  <SCORE.INTRA.DIHEDRAL>
0

>  <SCORE.INTRA.DIHEDRAL.0>
0

>  <SCORE.INTRA.POLAR>
0

>  <SCORE.INTRA.POLAR.0>
0

>  <SCORE.INTRA.REPUL>
0

>  <SCORE.INTRA.REPUL.0>
0

>  <SCORE.INTRA.SOLV>
0

>  <SCORE.INTRA.SOLV.lig_0>
-48.1583

>  <SCORE.INTRA.VDW>
0

>  <SCORE.INTRA.VDW.0>
0

>  <SCORE.INTRA.norm>
0

>  <SCORE.RESTR>
0

>  <SCORE.RESTR.CAVITY>
0

>  <SCORE.RESTR.norm>
0

>  <SCORE.SYSTEM>
0

>  <SCORE.SYSTEM.CONST>
0

>  <SCORE.SYSTEM.DIHEDRAL>
0

>  <SCORE.SYSTEM.SOLV>
0

>  <SCORE.SYSTEM.norm>
0

>  <SCORE.heavy>
12

>  <SCORE.norm>
-1.25665

>  <RMSD>
3.047

$$$$
ligand
 OpenBabel02271912143D
libRbt.so/2013.1/901 2013/11/27
 12 13  0  0  0  0  0  0  0  0999 V2000
    4.6677   15.4614    3.9516 C   0  0  0  0  0  0  0  0  0  0  0  0
    6.0424   17.0560    2.9503 C   0  0  0  0  0  0  0  0  0  0  0  0
    3.9778   14.3285    3.8539 N   0  0  0  0  0  0  0  0  0  0  0  0
    6.6952   17.5647    1.8996 N   0  0  0  0  0  0  0  0  0  0  0  0
    5.3212   15.9302    2.8660 N   0  0  0  0  0  0  0  0  0  0  0  0
    4.7267   16.1087    5.1366 N   0  0  0  0  0  0  0  0  0  0  0  0
    6.8960   19.6147    5.4786 N   0  0  0  0  0  0  0  0  0  0  0  0
    6.2087   19.0945    6.5861 C   0  0  0  0  0  0  0  0  0  0  0  0
    5.4618   17.9002    6.4577 N   0  0  0  0  0  0  0  0  0  0  0  0
    5.4346   17.2580    5.2699 C   0  0  0  0  0  0  0  0  0  0  0  0
    6.1233   17.7572    4.1597 C   0  0  0  0  0  0  0  0  0  0  0  0
    6.8609   18.9367    4.2440 C   0  0  0  0  0  0  0  0  0  0  0  0
  1  3  1  0  0  0  0
  1  5  1  0  0  0  0
  1  6  2  0  0  0  0
  2  5  2  0  0  0  0
  2 11  1  0  0  0  0
  2  4  1  0  0  0  0
  6 10  1  0  0  0  0
  7  8  2  0  0  0  0
  7 12  1  0  0  0  0
  8  9  1  0  0  0  0
  9 10  2  0  0  0  0
 10 11  1  0  0  0  0
 11 12  2  0  0  0  0
M  END
>  <CHROM.1>
5.68690907,17.22458642,4.39511053,2.25892616,-0.94309429,-2.02471741

>  <Name>
ligand

>  <RI>
0

>  <Rbt.Current_Directory>
/home/itssahil/PROJECTS/Mol_Feturizer/Test_systems_manuscript/rnas/4lx5

>  <Rbt.Executable>
rbdock ($Id: //depot/dev/client3/rdock/2013.1/src/exe/rbdock.cxx#4 $)

>  <Rbt.Library>
libRbt.so (2013.1, Build901 2013/11/27)

>  <Rbt.Parameter_File>
/export/apps/rDock/src/rDock_2013.1_src/data/scripts/dock_solv.prm

>  <Rbt.Receptor>
prm/pocket_docking_7.prm

>  <SCORE>
-15.0188

>  <SCORE.INTER>
-15.0188

>  <SCORE.INTER.CONST>
1

>  <SCORE.INTER.POLAR>
0

>  <SCORE.INTER.ROT>
0

>  <SCORE.INTER.SOLV>
15.4667

>  <SCORE.INTER.VDW>
-18.7681

>  <SCORE.INTER.norm>
-1.25156

>  <SCORE.INTRA>
0

>  <SCORE.INTRA.DIHEDRAL>
0

>  <SCORE.INTRA.DIHEDRAL.0>
0

>  <SCORE.INTRA.POLAR>
0

>  <SCORE.INTRA.POLAR.0>
0

>  <SCORE.INTRA.REPUL>
0

>  <SCORE.INTRA.REPUL.0>
0

>  <SCORE.INTRA.SOLV>
0

>  <SCORE.INTRA.SOLV.lig_0>
-48.1583

>  <SCORE.INTRA.VDW>
0

>  <SCORE.INTRA.VDW.0>
0

>  <SCORE.INTRA.norm>
0

>  <SCORE.RESTR>
0

>  <SCORE.RESTR.CAVITY>
0

>  <SCORE.RESTR.norm>
0

>  <SCORE.SYSTEM>
0

>  <SCORE.SYSTEM.CONST>
0

>  <SCORE.SYSTEM.DIHEDRAL>
0

>  <SCORE.SYSTEM.SOLV>
0

>  <SCORE.SYSTEM.norm>
0

>  <SCORE.heavy>
12

>  <SCORE.norm>
-1.25156

>  <RMSD>
3.047

$$$$
ligand
 OpenBabel02271912143D
libRbt.so/2013.1/901 2013/11/27
 12 13  0  0  0  0  0  0  0  0999 V2000
    4.6823   15.4592    3.9611 C   0  0  0  0  0  0  0  0  0  0  0  0
    6.0439   17.0558    2.9454 C   0  0  0  0  0  0  0  0  0  0  0  0
    3.9988   14.3216    3.8727 N   0  0  0  0  0  0  0  0  0  0  0  0
    6.6900   17.5620    1.8893 N   0  0  0  0  0  0  0  0  0  0  0  0
    5.3291   15.9253    2.8704 N   0  0  0  0  0  0  0  0  0  0  0  0
    4.7415   16.1139    5.1420 N   0  0  0  0  0  0  0  0  0  0  0  0
    6.8910   19.6347    5.4553 N   0  0  0  0  0  0  0  0  0  0  0  0
    6.2108   19.1171    6.5683 C   0  0  0  0  0  0  0  0  0  0  0  0
    5.4705   17.9177    6.4497 N   0  0  0  0  0  0  0  0  0  0  0  0
    5.4430   17.2682    5.2659 C   0  0  0  0  0  0  0  0  0  0  0  0
    6.1249   17.7648    4.1503 C   0  0  0  0  0  0  0  0  0  0  0  0
    6.8557   18.9492    4.2249 C   0  0  0  0  0  0  0  0  0  0  0  0
  1  3  1  0  0  0  0
  1  5  1  0  0  0  0
  1  6  2  0  0  0  0
  2  5  2  0  0  0  0
  2 11  1  0  0  0  0
  2  4  1  0  0  0  0
  6 10  1  0  0  0  0
  7  8  2  0  0  0  0
  7 12  1  0  0  0  0
  8  9  1  0  0  0  0
  9 10  2  0  0  0  0
 10 11  1  0  0  0  0
 11 12  2  0  0  0  0
M  END
>  <CHROM.1>
5.69247279,17.23100917,4.39041519,2.25981703,-0.94998717,-2.03001490

>  <Name>
ligand

>  <RI>
0

>  <Rbt.Current_Directory>
/home/itssahil/PROJECTS/Mol_Feturizer/Test_systems_manuscript/rnas/4lx5

>  <Rbt.Executable>
rbdock ($Id: //depot/dev/client3/rdock/2013.1/src/exe/rbdock.cxx#4 $)

>  <Rbt.Library>
libRbt.so (2013.1, Build901 2013/11/27)

>  <Rbt.Parameter_File>
/export/apps/rDock/src/rDock_2013.1_src/data/scripts/dock_solv.prm

>  <Rbt.Receptor>
prm/pocket_docking_7.prm

>  <SCORE>
-15.0422

>  <SCORE.INTER>
-15.0422

>  <SCORE.INTER.CONST>
1

>  <SCORE.INTER.POLAR>
0

>  <SCORE.INTER.ROT>
0

>  <SCORE.INTER.SOLV>
15.5957

>  <SCORE.INTER.VDW>
-18.8267

>  <SCORE.INTER.norm>
-1.25352

>  <SCORE.INTRA>
0

>  <SCORE.INTRA.DIHEDRAL>
0

>  <SCORE.INTRA.DIHEDRAL.0>
0

>  <SCORE.INTRA.POLAR>
0

>  <SCORE.INTRA.POLAR.0>
0

>  <SCORE.INTRA.REPUL>
0

>  <SCORE.INTRA.REPUL.0>
0

>  <SCORE.INTRA.SOLV>
0

>  <SCORE.INTRA.SOLV.lig_0>
-48.1583

>  <SCORE.INTRA.VDW>
0

>  <SCORE.INTRA.VDW.0>
0

>  <SCORE.INTRA.norm>
0

>  <SCORE.RESTR>
0

>  <SCORE.RESTR.CAVITY>
0

>  <SCORE.RESTR.norm>
0

>  <SCORE.SYSTEM>
0

>  <SCORE.SYSTEM.CONST>
0

>  <SCORE.SYSTEM.DIHEDRAL>
0

>  <SCORE.SYSTEM.SOLV>
0

>  <SCORE.SYSTEM.norm>
0

>  <SCORE.heavy>
12

>  <SCORE.norm>
-1.25352

>  <RMSD>
3.047

$$$$
ligand
 OpenBabel02271912143D
libRbt.so/2013.1/901 2013/11/27
 12 13  0  0  0  0  0  0  0  0999 V2000
    4.6782   15.4749    3.9581 C   0  0  0  0  0  0  0  0  0  0  0  0
    6.0381   17.0765    2.9479 C   0  0  0  0  0  0  0  0  0  0  0  0
    3.9934   14.3386    3.8649 N   0  0  0  0  0  0  0  0  0  0  0  0
    6.6811   17.5887    1.8928 N   0  0  0  0  0  0  0  0  0  0  0  0
    5.3219   15.9472    2.8682 N   0  0  0  0  0  0  0  0  0  0  0  0
    4.7420   16.1222    5.1428 N   0  0  0  0  0  0  0  0  0  0  0  0
    6.8960   19.6390    5.4709 N   0  0  0  0  0  0  0  0  0  0  0  0
    6.2190   19.1151    6.5829 C   0  0  0  0  0  0  0  0  0  0  0  0
    5.4771   17.9172    6.4593 N   0  0  0  0  0  0  0  0  0  0  0  0
    5.4450   17.2751    5.2716 C   0  0  0  0  0  0  0  0  0  0  0  0
    6.1237   17.7779    4.1569 C   0  0  0  0  0  0  0  0  0  0  0  0
    6.8559   18.9611    4.2363 C   0  0  0  0  0  0  0  0  0  0  0  0
  1  3  1  0  0  0  0
  1  5  1  0  0  0  0
  1  6  2  0  0  0  0
  2  5  2  0  0  0  0
  2 11  1  0  0  0  0
  2  4  1  0  0  0  0
  6 10  1  0  0  0  0
  7  8  2  0  0  0  0
  7 12  1  0  0  0  0
  8  9  1  0  0  0  0
  9 10  2  0  0  0  0
 10 11  1  0  0  0  0
 11 12  2  0  0  0  0
M  END
>  <CHROM.1>
5.69158591,17.24307262,4.39508318,2.26566830,-0.95056346,-2.01904060

>  <Name>
ligand

>  <RI>
0

>  <Rbt.Current_Directory>
/home/itssahil/PROJECTS/Mol_Feturizer/Test_systems_manuscript/rnas/4lx5

>  <Rbt.Executable>
rbdock ($Id: //depot/dev/client3/rdock/2013.1/src/exe/rbdock.cxx#4 $)

>  <Rbt.Library>
libRbt.so (2013.1, Build901 2013/11/27)

>  <Rbt.Parameter_File>
/export/apps/rDock/src/rDock_2013.1_src/data/scripts/dock_solv.prm

>  <Rbt.Receptor>
prm/pocket_docking_7.prm

>  <SCORE>
-15.0855

>  <SCORE.INTER>
-15.0855

>  <SCORE.INTER.CONST>
1

>  <SCORE.INTER.POLAR>
0

>  <SCORE.INTER.ROT>
0

>  <SCORE.INTER.SOLV>
15.5391

>  <SCORE.INTER.VDW>
-18.8367

>  <SCORE.INTER.norm>
-1.25712

>  <SCORE.INTRA>
0

>  <SCORE.INTRA.DIHEDRAL>
0

>  <SCORE.INTRA.DIHEDRAL.0>
0

>  <SCORE.INTRA.POLAR>
0

>  <SCORE.INTRA.POLAR.0>
0

>  <SCORE.INTRA.REPUL>
0

>  <SCORE.INTRA.REPUL.0>
0

>  <SCORE.INTRA.SOLV>
0

>  <SCORE.INTRA.SOLV.lig_0>
-48.1583

>  <SCORE.INTRA.VDW>
0

>  <SCORE.INTRA.VDW.0>
0

>  <SCORE.INTRA.norm>
0

>  <SCORE.RESTR>
0

>  <SCORE.RESTR.CAVITY>
0

>  <SCORE.RESTR.norm>
0

>  <SCORE.SYSTEM>
0

>  <SCORE.SYSTEM.CONST>
0

>  <SCORE.SYSTEM.DIHEDRAL>
0

>  <SCORE.SYSTEM.SOLV>
0

>  <SCORE.SYSTEM.norm>
0

>  <SCORE.heavy>
12

>  <SCORE.norm>
-1.25712

>  <RMSD>
3.047

$$$$
ligand
 OpenBabel02271912143D
libRbt.so/2013.1/901 2013/11/27
 12 13  0  0  0  0  0  0  0  0999 V2000
    4.7069   15.4174    3.9544 C   0  0  0  0  0  0  0  0  0  0  0  0
    6.0434   17.0454    2.9551 C   0  0  0  0  0  0  0  0  0  0  0  0
    4.0396   14.2714    3.8538 N   0  0  0  0  0  0  0  0  0  0  0  0
    6.6798   17.5733    1.9038 N   0  0  0  0  0  0  0  0  0  0  0  0
    5.3447   15.9057    2.8681 N   0  0  0  0  0  0  0  0  0  0  0  0
    4.7594   16.0588    5.1429 N   0  0  0  0  0  0  0  0  0  0  0  0
    6.8590   19.6062    5.4937 N   0  0  0  0  0  0  0  0  0  0  0  0
    6.1887   19.0657    6.6019 C   0  0  0  0  0  0  0  0  0  0  0  0
    5.4654   17.8573    6.4705 N   0  0  0  0  0  0  0  0  0  0  0  0
    5.4445   17.2216    5.2791 C   0  0  0  0  0  0  0  0  0  0  0  0
    6.1168   17.7411    4.1681 C   0  0  0  0  0  0  0  0  0  0  0  0
    6.8308   18.9348    4.2553 C   0  0  0  0  0  0  0  0  0  0  0  0
  1  3  1  0  0  0  0
  1  5  1  0  0  0  0
  1  6  2  0  0  0  0
  2  5  2  0  0  0  0
  2 11  1  0  0  0  0
  2  4  1  0  0  0  0
  6 10  1  0  0  0  0
  7  8  2  0  0  0  0
  7 12  1  0  0  0  0
  8  9  1  0  0  0  0
  9 10  2  0  0  0  0
 10 11  1  0  0  0  0
 11 12  2  0  0  0  0
M  END
>  <CHROM.1>
5.69263102,17.19832187,4.40273666,2.25214942,-0.96375713,-2.02439115

>  <Name>
ligand

>  <RI>
0

>  <Rbt.Current_Directory>
/home/itssahil/PROJECTS/Mol_Feturizer/Test_systems_manuscript/rnas/4lx5

>  <Rbt.Executable>
rbdock ($Id: //depot/dev/client3/rdock/2013.1/src/exe/rbdock.cxx#4 $)

>  <Rbt.Library>
libRbt.so (2013.1, Build901 2013/11/27)

>  <Rbt.Parameter_File>
/export/apps/rDock/src/rDock_2013.1_src/data/scripts/dock_solv.prm

>  <Rbt.Receptor>
prm/pocket_docking_8.prm

>  <SCORE>
-15.0022

>  <SCORE.INTER>
-15.0022

>  <SCORE.INTER.CONST>
1

>  <SCORE.INTER.POLAR>
0

>  <SCORE.INTER.ROT>
0

>  <SCORE.INTER.SOLV>
15.7587

>  <SCORE.INTER.VDW>
-18.8544

>  <SCORE.INTER.norm>
-1.25018

>  <SCORE.INTRA>
0

>  <SCORE.INTRA.DIHEDRAL>
0

>  <SCORE.INTRA.DIHEDRAL.0>
0

>  <SCORE.INTRA.POLAR>
0

>  <SCORE.INTRA.POLAR.0>
0

>  <SCORE.INTRA.REPUL>
0

>  <SCORE.INTRA.REPUL.0>
0

>  <SCORE.INTRA.SOLV>
0

>  <SCORE.INTRA.SOLV.lig_0>
-48.1583

>  <SCORE.INTRA.VDW>
0

>  <SCORE.INTRA.VDW.0>
0

>  <SCORE.INTRA.norm>
0

>  <SCORE.RESTR>
0

>  <SCORE.RESTR.CAVITY>
0

>  <SCORE.RESTR.norm>
0

>  <SCORE.SYSTEM>
0

>  <SCORE.SYSTEM.CONST>
0

>  <SCORE.SYSTEM.DIHEDRAL>
0

>  <SCORE.SYSTEM.SOLV>
0

>  <SCORE.SYSTEM.norm>
0

>  <SCORE.heavy>
12

>  <SCORE.norm>
-1.25018

>  <RMSD>
3.047

$$$$
ligand
 OpenBabel02271912143D
libRbt.so/2013.1/901 2013/11/27
 12 13  0  0  0  0  0  0  0  0999 V2000
    4.6747   15.4721    3.9525 C   0  0  0  0  0  0  0  0  0  0  0  0
    6.0408   17.0806    2.9618 C   0  0  0  0  0  0  0  0  0  0  0  0
    3.9879   14.3381    3.8463 N   0  0  0  0  0  0  0  0  0  0  0  0
    6.6883   17.6014    1.9137 N   0  0  0  0  0  0  0  0  0  0  0  0
    5.3228   15.9534    2.8692 N   0  0  0  0  0  0  0  0  0  0  0  0
    4.7358   16.1081    5.1435 N   0  0  0  0  0  0  0  0  0  0  0  0
    6.8954   19.6175    5.5116 N   0  0  0  0  0  0  0  0  0  0  0  0
    6.2137   19.0845    6.6164 C   0  0  0  0  0  0  0  0  0  0  0  0
    5.4700   17.8892    6.4791 N   0  0  0  0  0  0  0  0  0  0  0  0
    5.4406   17.2584    5.2853 C   0  0  0  0  0  0  0  0  0  0  0  0
    6.1239   17.7704    4.1776 C   0  0  0  0  0  0  0  0  0  0  0  0
    6.8580   18.9513    4.2706 C   0  0  0  0  0  0  0  0  0  0  0  0
  1  3  1  0  0  0  0
  1  5  1  0  0  0  0
  1  6  2  0  0  0  0
  2  5  2  0  0  0  0
  2 11  1  0  0  0  0
  2  4  1  0  0  0  0
  6 10  1  0  0  0  0
  7  8  2  0  0  0  0
  7 12  1  0  0  0  0
  8  9  1  0  0  0  0
  9 10  2  0  0  0  0
 10 11  1  0  0  0  0
 11 12  2  0  0  0  0
M  END
>  <CHROM.1>
5.68993902,17.23412024,4.40937247,2.26205370,-0.94743495,-2.01255843

>  <Name>
ligand

>  <RI>
0

>  <Rbt.Current_Directory>
/home/itssahil/PROJECTS/Mol_Feturizer/Test_systems_manuscript/rnas/4lx5

>  <Rbt.Executable>
rbdock ($Id: //depot/dev/client3/rdock/2013.1/src/exe/rbdock.cxx#4 $)

>  <Rbt.Library>
libRbt.so (2013.1, Build901 2013/11/27)

>  <Rbt.Parameter_File>
/export/apps/rDock/src/rDock_2013.1_src/data/scripts/dock_solv.prm

>  <Rbt.Receptor>
prm/blind_docking_40.prm

>  <SCORE>
-15.0519

>  <SCORE.INTER>
-15.0519

>  <SCORE.INTER.CONST>
1

>  <SCORE.INTER.POLAR>
0

>  <SCORE.INTER.ROT>
0

>  <SCORE.INTER.SOLV>
15.481

>  <SCORE.INTER.VDW>
-18.795

>  <SCORE.INTER.norm>
-1.25433

>  <SCORE.INTRA>
0

>  <SCORE.INTRA.DIHEDRAL>
0

>  <SCORE.INTRA.DIHEDRAL.0>
0

>  <SCORE.INTRA.POLAR>
0

>  <SCORE.INTRA.POLAR.0>
0

>  <SCORE.INTRA.REPUL>
0

>  <SCORE.INTRA.REPUL.0>
0

>  <SCORE.INTRA.SOLV>
0

>  <SCORE.INTRA.SOLV.lig_0>
-48.1583

>  <SCORE.INTRA.VDW>
0

>  <SCORE.INTRA.VDW.0>
0

>  <SCORE.INTRA.norm>
0

>  <SCORE.RESTR>
0

>  <SCORE.RESTR.CAVITY>
0

>  <SCORE.RESTR.norm>
0

>  <SCORE.SYSTEM>
0

>  <SCORE.SYSTEM.CONST>
0

>  <SCORE.SYSTEM.DIHEDRAL>
0

>  <SCORE.SYSTEM.SOLV>
0

>  <SCORE.SYSTEM.norm>
0

>  <SCORE.heavy>
12

>  <SCORE.norm>
-1.25433

>  <RMSD>
3.048

$$$$
ligand
 OpenBabel02271912143D
libRbt.so/2013.1/901 2013/11/27
 12 13  0  0  0  0  0  0  0  0999 V2000
    4.6731   15.4783    3.9601 C   0  0  0  0  0  0  0  0  0  0  0  0
    6.0357   17.0792    2.9525 C   0  0  0  0  0  0  0  0  0  0  0  0
    3.9869   14.3429    3.8653 N   0  0  0  0  0  0  0  0  0  0  0  0
    6.6802   17.5916    1.8985 N   0  0  0  0  0  0  0  0  0  0  0  0
    5.3183   15.9508    2.8712 N   0  0  0  0  0  0  0  0  0  0  0  0
    4.7368   16.1243    5.1456 N   0  0  0  0  0  0  0  0  0  0  0  0
    6.8949   19.6381    5.4787 N   0  0  0  0  0  0  0  0  0  0  0  0
    6.2163   19.1140    6.5897 C   0  0  0  0  0  0  0  0  0  0  0  0
    5.4731   17.9171    6.4643 N   0  0  0  0  0  0  0  0  0  0  0  0
    5.4411   17.2762    5.2760 C   0  0  0  0  0  0  0  0  0  0  0  0
    6.1213   17.7793    4.1623 C   0  0  0  0  0  0  0  0  0  0  0  0
    6.8549   18.9615    4.2435 C   0  0  0  0  0  0  0  0  0  0  0  0
  1  3  1  0  0  0  0
  1  5  1  0  0  0  0
  1  6  2  0  0  0  0
  2  5  2  0  0  0  0
  2 11  1  0  0  0  0
  2  4  1  0  0  0  0
  6 10  1  0  0  0  0
  7  8  2  0  0  0  0
  7 12  1  0  0  0  0
  8  9  1  0  0  0  0
  9 10  2  0  0  0  0
 10 11  1  0  0  0  0
 11 12  2  0  0  0  0
M  END
>  <CHROM.1>
5.68832993,17.24475429,4.39963901,2.26538836,-0.94911003,-2.01828961

>  <Name>
ligand

>  <RI>
0

>  <Rbt.Current_Directory>
/home/itssahil/PROJECTS/Mol_Feturizer/Test_systems_manuscript/rnas/4lx5

>  <Rbt.Executable>
rbdock ($Id: //depot/dev/client3/rdock/2013.1/src/exe/rbdock.cxx#4 $)

>  <Rbt.Library>
libRbt.so (2013.1, Build901 2013/11/27)

>  <Rbt.Parameter_File>
/export/apps/rDock/src/rDock_2013.1_src/data/scripts/dock_solv.prm

>  <Rbt.Receptor>
prm/pocket_docking_3.prm

>  <SCORE>
-15.0844

>  <SCORE.INTER>
-15.0844

>  <SCORE.INTER.CONST>
1

>  <SCORE.INTER.POLAR>
0

>  <SCORE.INTER.ROT>
0

>  <SCORE.INTER.SOLV>
15.4986

>  <SCORE.INTER.VDW>
-18.8225

>  <SCORE.INTER.norm>
-1.25704

>  <SCORE.INTRA>
0

>  <SCORE.INTRA.DIHEDRAL>
0

>  <SCORE.INTRA.DIHEDRAL.0>
0

>  <SCORE.INTRA.POLAR>
0

>  <SCORE.INTRA.POLAR.0>
0

>  <SCORE.INTRA.REPUL>
0

>  <SCORE.INTRA.REPUL.0>
0

>  <SCORE.INTRA.SOLV>
0

>  <SCORE.INTRA.SOLV.lig_0>
-48.1583

>  <SCORE.INTRA.VDW>
0

>  <SCORE.INTRA.VDW.0>
0

>  <SCORE.INTRA.norm>
0

>  <SCORE.RESTR>
0

>  <SCORE.RESTR.CAVITY>
0

>  <SCORE.RESTR.norm>
0

>  <SCORE.SYSTEM>
0

>  <SCORE.SYSTEM.CONST>
0

>  <SCORE.SYSTEM.DIHEDRAL>
0

>  <SCORE.SYSTEM.SOLV>
0

>  <SCORE.SYSTEM.norm>
0

>  <SCORE.heavy>
12

>  <SCORE.norm>
-1.25704

>  <RMSD>
3.048

$$$$
ligand
 OpenBabel02271912143D
libRbt.so/2013.1/901 2013/11/27
 12 13  0  0  0  0  0  0  0  0999 V2000
    4.6865   15.4621    3.9663 C   0  0  0  0  0  0  0  0  0  0  0  0
    6.0396   17.0645    2.9482 C   0  0  0  0  0  0  0  0  0  0  0  0
    4.0046   14.3236    3.8781 N   0  0  0  0  0  0  0  0  0  0  0  0
    6.6788   17.5753    1.8902 N   0  0  0  0  0  0  0  0  0  0  0  0
    5.3264   15.9329    2.8736 N   0  0  0  0  0  0  0  0  0  0  0  0
    4.7512   16.1132    5.1489 N   0  0  0  0  0  0  0  0  0  0  0  0
    6.8960   19.6369    5.4615 N   0  0  0  0  0  0  0  0  0  0  0  0
    6.2229   19.1145    6.5767 C   0  0  0  0  0  0  0  0  0  0  0  0
    5.4841   17.9142    6.4583 N   0  0  0  0  0  0  0  0  0  0  0  0
    5.4512   17.2684    5.2726 C   0  0  0  0  0  0  0  0  0  0  0  0
    6.1260   17.7698    4.1549 C   0  0  0  0  0  0  0  0  0  0  0  0
    6.8550   18.9552    4.2292 C   0  0  0  0  0  0  0  0  0  0  0  0
  1  3  1  0  0  0  0
  1  5  1  0  0  0  0
  1  6  2  0  0  0  0
  2  5  2  0  0  0  0
  2 11  1  0  0  0  0
  2  4  1  0  0  0  0
  6 10  1  0  0  0  0
  7  8  2  0  0  0  0
  7 12  1  0  0  0  0
  8  9  1  0  0  0  0
  9 10  2  0  0  0  0
 10 11  1  0  0  0  0
 11 12  2  0  0  0  0
M  END
>  <CHROM.1>
5.69586054,17.23442045,4.39568139,2.26705959,-0.95407187,-2.02091548

>  <Name>
ligand

>  <RI>
0

>  <Rbt.Current_Directory>
/home/itssahil/PROJECTS/Mol_Feturizer/Test_systems_manuscript/rnas/4lx5

>  <Rbt.Executable>
rbdock ($Id: //depot/dev/client3/rdock/2013.1/src/exe/rbdock.cxx#4 $)

>  <Rbt.Library>
libRbt.so (2013.1, Build901 2013/11/27)

>  <Rbt.Parameter_File>
/export/apps/rDock/src/rDock_2013.1_src/data/scripts/dock_solv.prm

>  <Rbt.Receptor>
prm/pocket_docking_3.prm

>  <SCORE>
-15.0452

>  <SCORE.INTER>
-15.0452

>  <SCORE.INTER.CONST>
1

>  <SCORE.INTER.POLAR>
0

>  <SCORE.INTER.ROT>
0

>  <SCORE.INTER.SOLV>
15.6096

>  <SCORE.INTER.VDW>
-18.8333

>  <SCORE.INTER.norm>
-1.25377

>  <SCORE.INTRA>
0

>  <SCORE.INTRA.DIHEDRAL>
0

>  <SCORE.INTRA.DIHEDRAL.0>
0

>  <SCORE.INTRA.POLAR>
0

>  <SCORE.INTRA.POLAR.0>
0

>  <SCORE.INTRA.REPUL>
0

>  <SCORE.INTRA.REPUL.0>
0

>  <SCORE.INTRA.SOLV>
0

>  <SCORE.INTRA.SOLV.lig_0>
-48.1583

>  <SCORE.INTRA.VDW>
0

>  <SCORE.INTRA.VDW.0>
0

>  <SCORE.INTRA.norm>
0

>  <SCORE.RESTR>
0

>  <SCORE.RESTR.CAVITY>
0

>  <SCORE.RESTR.norm>
0

>  <SCORE.SYSTEM>
0

>  <SCORE.SYSTEM.CONST>
0

>  <SCORE.SYSTEM.DIHEDRAL>
0

>  <SCORE.SYSTEM.SOLV>
0

>  <SCORE.SYSTEM.norm>
0

>  <SCORE.heavy>
12

>  <SCORE.norm>
-1.25377

>  <RMSD>
3.048

$$$$
ligand
 OpenBabel02271912143D
libRbt.so/2013.1/901 2013/11/27
 12 13  0  0  0  0  0  0  0  0999 V2000
    4.6785   15.4767    3.9625 C   0  0  0  0  0  0  0  0  0  0  0  0
    6.0353   17.0794    2.9499 C   0  0  0  0  0  0  0  0  0  0  0  0
    3.9931   14.3407    3.8699 N   0  0  0  0  0  0  0  0  0  0  0  0
    6.6749   17.5929    1.8934 N   0  0  0  0  0  0  0  0  0  0  0  0
    5.3186   15.9504    2.8711 N   0  0  0  0  0  0  0  0  0  0  0  0
    4.7466   16.1222    5.1479 N   0  0  0  0  0  0  0  0  0  0  0  0
    6.9026   19.6379    5.4737 N   0  0  0  0  0  0  0  0  0  0  0  0
    6.2292   19.1126    6.5873 C   0  0  0  0  0  0  0  0  0  0  0  0
    5.4866   17.9151    6.4645 N   0  0  0  0  0  0  0  0  0  0  0  0
    5.4503   17.2747    5.2759 C   0  0  0  0  0  0  0  0  0  0  0  0
    6.1253   17.7790    4.1596 C   0  0  0  0  0  0  0  0  0  0  0  0
    6.8581   18.9619    4.2384 C   0  0  0  0  0  0  0  0  0  0  0  0
  1  3  1  0  0  0  0
  1  5  1  0  0  0  0
  1  6  2  0  0  0  0
  2  5  2  0  0  0  0
  2 11  1  0  0  0  0
  2  4  1  0  0  0  0
  6 10  1  0  0  0  0
  7  8  2  0  0  0  0
  7 12  1  0  0  0  0
  8  9  1  0  0  0  0
  9 10  2  0  0  0  0
 10 11  1  0  0  0  0
 11 12  2  0  0  0  0
M  END
>  <CHROM.1>
5.69385059,17.24393046,4.39855402,2.27117966,-0.95179236,-2.01308789

>  <Name>
ligand

>  <RI>
0

>  <Rbt.Current_Directory>
/home/itssahil/PROJECTS/Mol_Feturizer/Test_systems_manuscript/rnas/4lx5

>  <Rbt.Executable>
rbdock ($Id: //depot/dev/client3/rdock/2013.1/src/exe/rbdock.cxx#4 $)

>  <Rbt.Library>
libRbt.so (2013.1, Build901 2013/11/27)

>  <Rbt.Parameter_File>
/export/apps/rDock/src/rDock_2013.1_src/data/scripts/dock_solv.prm

>  <Rbt.Receptor>
prm/pocket_docking_3.prm

>  <SCORE>
-15.0845

>  <SCORE.INTER>
-15.0845

>  <SCORE.INTER.CONST>
1

>  <SCORE.INTER.POLAR>
0

>  <SCORE.INTER.ROT>
0

>  <SCORE.INTER.SOLV>
15.5308

>  <SCORE.INTER.VDW>
-18.8333

>  <SCORE.INTER.norm>
-1.25704

>  <SCORE.INTRA>
0

>  <SCORE.INTRA.DIHEDRAL>
0

>  <SCORE.INTRA.DIHEDRAL.0>
0

>  <SCORE.INTRA.POLAR>
0

>  <SCORE.INTRA.POLAR.0>
0

>  <SCORE.INTRA.REPUL>
0

>  <SCORE.INTRA.REPUL.0>
0

>  <SCORE.INTRA.SOLV>
0

>  <SCORE.INTRA.SOLV.lig_0>
-48.1583

>  <SCORE.INTRA.VDW>
0

>  <SCORE.INTRA.VDW.0>
0

>  <SCORE.INTRA.norm>
0

>  <SCORE.RESTR>
0

>  <SCORE.RESTR.CAVITY>
0

>  <SCORE.RESTR.norm>
0

>  <SCORE.SYSTEM>
0

>  <SCORE.SYSTEM.CONST>
0

>  <SCORE.SYSTEM.DIHEDRAL>
0

>  <SCORE.SYSTEM.SOLV>
0

>  <SCORE.SYSTEM.norm>
0

>  <SCORE.heavy>
12

>  <SCORE.norm>
-1.25704

>  <RMSD>
3.048

$$$$
ligand
 OpenBabel02271912143D
libRbt.so/2013.1/901 2013/11/27
 12 13  0  0  0  0  0  0  0  0999 V2000
    4.6850   15.3914    3.9543 C   0  0  0  0  0  0  0  0  0  0  0  0
    6.0071   17.0185    2.9348 C   0  0  0  0  0  0  0  0  0  0  0  0
    4.0211   14.2424    3.8657 N   0  0  0  0  0  0  0  0  0  0  0  0
    6.6329   17.5428    1.8753 N   0  0  0  0  0  0  0  0  0  0  0  0
    5.3119   15.8758    2.8600 N   0  0  0  0  0  0  0  0  0  0  0  0
    4.7450   16.0397    5.1387 N   0  0  0  0  0  0  0  0  0  0  0  0
    6.8344   19.5966    5.4521 N   0  0  0  0  0  0  0  0  0  0  0  0
    6.1752   19.0599    6.5688 C   0  0  0  0  0  0  0  0  0  0  0  0
    5.4553   17.8482    6.4502 N   0  0  0  0  0  0  0  0  0  0  0  0
    5.4269   17.2057    5.2626 C   0  0  0  0  0  0  0  0  0  0  0  0
    6.0881   17.7213    4.1432 C   0  0  0  0  0  0  0  0  0  0  0  0
    6.7983   18.9181    4.2178 C   0  0  0  0  0  0  0  0  0  0  0  0
  1  3  1  0  0  0  0
  1  5  1  0  0  0  0
  1  6  2  0  0  0  0
  2  5  2  0  0  0  0
  2 11  1  0  0  0  0
  2  4  1  0  0  0  0
  6 10  1  0  0  0  0
  7  8  2  0  0  0  0
  7 12  1  0  0  0  0
  8  9  1  0  0  0  0
  9 10  2  0  0  0  0
 10 11  1  0  0  0  0
 11 12  2  0  0  0  0
M  END
>  <CHROM.1>
5.66784541,17.17838935,4.38441167,2.26247755,-0.97067806,-2.02151809

>  <Name>
ligand

>  <RI>
0

>  <Rbt.Current_Directory>
/home/itssahil/PROJECTS/Mol_Feturizer/Test_systems_manuscript/rnas/4lx5

>  <Rbt.Executable>
rbdock ($Id: //depot/dev/client3/rdock/2013.1/src/exe/rbdock.cxx#4 $)

>  <Rbt.Library>
libRbt.so (2013.1, Build901 2013/11/27)

>  <Rbt.Parameter_File>
/export/apps/rDock/src/rDock_2013.1_src/data/scripts/dock_solv.prm

>  <Rbt.Receptor>
prm/pocket_docking_4.prm

>  <SCORE>
-15.0376

>  <SCORE.INTER>
-15.0376

>  <SCORE.INTER.CONST>
1

>  <SCORE.INTER.POLAR>
0

>  <SCORE.INTER.ROT>
0

>  <SCORE.INTER.SOLV>
15.6488

>  <SCORE.INTER.VDW>
-18.8413

>  <SCORE.INTER.norm>
-1.25313

>  <SCORE.INTRA>
0

>  <SCORE.INTRA.DIHEDRAL>
0

>  <SCORE.INTRA.DIHEDRAL.0>
0

>  <SCORE.INTRA.POLAR>
0

>  <SCORE.INTRA.POLAR.0>
0

>  <SCORE.INTRA.REPUL>
0

>  <SCORE.INTRA.REPUL.0>
0

>  <SCORE.INTRA.SOLV>
0

>  <SCORE.INTRA.SOLV.lig_0>
-48.1583

>  <SCORE.INTRA.VDW>
0

>  <SCORE.INTRA.VDW.0>
0

>  <SCORE.INTRA.norm>
0

>  <SCORE.RESTR>
0

>  <SCORE.RESTR.CAVITY>
0

>  <SCORE.RESTR.norm>
0

>  <SCORE.SYSTEM>
0

>  <SCORE.SYSTEM.CONST>
0

>  <SCORE.SYSTEM.DIHEDRAL>
0

>  <SCORE.SYSTEM.SOLV>
0

>  <SCORE.SYSTEM.norm>
0

>  <SCORE.heavy>
12

>  <SCORE.norm>
-1.25313

>  <RMSD>
3.048

$$$$
ligand
 OpenBabel02271912143D
libRbt.so/2013.1/901 2013/11/27
 12 13  0  0  0  0  0  0  0  0999 V2000
    4.6878   15.4588    3.9667 C   0  0  0  0  0  0  0  0  0  0  0  0
    6.0414   17.0619    2.9505 C   0  0  0  0  0  0  0  0  0  0  0  0
    4.0078   14.3192    3.8780 N   0  0  0  0  0  0  0  0  0  0  0  0
    6.6830   17.5722    1.8936 N   0  0  0  0  0  0  0  0  0  0  0  0
    5.3302   15.9291    2.8752 N   0  0  0  0  0  0  0  0  0  0  0  0
    4.7481   16.1114    5.1487 N   0  0  0  0  0  0  0  0  0  0  0  0
    6.8869   19.6387    5.4630 N   0  0  0  0  0  0  0  0  0  0  0  0
    6.2114   19.1167    6.5769 C   0  0  0  0  0  0  0  0  0  0  0  0
    5.4747   17.9151    6.4579 N   0  0  0  0  0  0  0  0  0  0  0  0
    5.4461   17.2678    5.2730 C   0  0  0  0  0  0  0  0  0  0  0  0
    6.1234   17.7688    4.1565 C   0  0  0  0  0  0  0  0  0  0  0  0
    6.8505   18.9553    4.2314 C   0  0  0  0  0  0  0  0  0  0  0  0
  1  3  1  0  0  0  0
  1  5  1  0  0  0  0
  1  6  2  0  0  0  0
  2  5  2  0  0  0  0
  2 11  1  0  0  0  0
  2  4  1  0  0  0  0
  6 10  1  0  0  0  0
  7  8  2  0  0  0  0
  7 12  1  0  0  0  0
  8  9  1  0  0  0  0
  9 10  2  0  0  0  0
 10 11  1  0  0  0  0
 11 12  2  0  0  0  0
M  END
>  <CHROM.1>
5.69335845,17.23308865,4.39675023,2.26152807,-0.95411787,-2.02668860

>  <Name>
ligand

>  <RI>
0

>  <Rbt.Current_Directory>
/home/itssahil/PROJECTS/Mol_Feturizer/Test_systems_manuscript/rnas/4lx5

>  <Rbt.Executable>
rbdock ($Id: //depot/dev/client3/rdock/2013.1/src/exe/rbdock.cxx#4 $)

>  <Rbt.Library>
libRbt.so (2013.1, Build901 2013/11/27)

>  <Rbt.Parameter_File>
/export/apps/rDock/src/rDock_2013.1_src/data/scripts/dock_solv.prm

>  <Rbt.Receptor>
prm/pocket_docking_6.prm

>  <SCORE>
-15.0436

>  <SCORE.INTER>
-15.0436

>  <SCORE.INTER.CONST>
1

>  <SCORE.INTER.POLAR>
0

>  <SCORE.INTER.ROT>
0

>  <SCORE.INTER.SOLV>
15.6308

>  <SCORE.INTER.VDW>
-18.8393

>  <SCORE.INTER.norm>
-1.25363

>  <SCORE.INTRA>
0

>  <SCORE.INTRA.DIHEDRAL>
0

>  <SCORE.INTRA.DIHEDRAL.0>
0

>  <SCORE.INTRA.POLAR>
0

>  <SCORE.INTRA.POLAR.0>
0

>  <SCORE.INTRA.REPUL>
0

>  <SCORE.INTRA.REPUL.0>
0

>  <SCORE.INTRA.SOLV>
0

>  <SCORE.INTRA.SOLV.lig_0>
-48.1583

>  <SCORE.INTRA.VDW>
0

>  <SCORE.INTRA.VDW.0>
0

>  <SCORE.INTRA.norm>
0

>  <SCORE.RESTR>
0

>  <SCORE.RESTR.CAVITY>
0

>  <SCORE.RESTR.norm>
0

>  <SCORE.SYSTEM>
0

>  <SCORE.SYSTEM.CONST>
0

>  <SCORE.SYSTEM.DIHEDRAL>
0

>  <SCORE.SYSTEM.SOLV>
0

>  <SCORE.SYSTEM.norm>
0

>  <SCORE.heavy>
12

>  <SCORE.norm>
-1.25363

>  <RMSD>
3.048

$$$$
ligand
 OpenBabel02271912143D
libRbt.so/2013.1/901 2013/11/27
 12 13  0  0  0  0  0  0  0  0999 V2000
    4.6978   15.4746    3.9672 C   0  0  0  0  0  0  0  0  0  0  0  0
    6.0544   17.0796    2.9579 C   0  0  0  0  0  0  0  0  0  0  0  0
    4.0137   14.3380    3.8728 N   0  0  0  0  0  0  0  0  0  0  0  0
    6.6949   17.5946    1.9027 N   0  0  0  0  0  0  0  0  0  0  0  0
    5.3390   15.9498    2.8771 N   0  0  0  0  0  0  0  0  0  0  0  0
    4.7635   16.1193    5.1532 N   0  0  0  0  0  0  0  0  0  0  0  0
    6.9153   19.6370    5.4849 N   0  0  0  0  0  0  0  0  0  0  0  0
    6.2409   19.1101    6.5971 C   0  0  0  0  0  0  0  0  0  0  0  0
    5.4997   17.9119    6.4723 N   0  0  0  0  0  0  0  0  0  0  0  0
    5.4658   17.2724    5.2832 C   0  0  0  0  0  0  0  0  0  0  0  0
    6.1419   17.7783    4.1683 C   0  0  0  0  0  0  0  0  0  0  0  0
    6.8733   18.9619    4.2490 C   0  0  0  0  0  0  0  0  0  0  0  0
  1  3  1  0  0  0  0
  1  5  1  0  0  0  0
  1  6  2  0  0  0  0
  2  5  2  0  0  0  0
  2 11  1  0  0  0  0
  2  4  1  0  0  0  0
  6 10  1  0  0  0  0
  7  8  2  0  0  0  0
  7 12  1  0  0  0  0
  8  9  1  0  0  0  0
  9 10  2  0  0  0  0
 10 11  1  0  0  0  0
 11 12  2  0  0  0  0
M  END
>  <CHROM.1>
5.71064008,17.24257867,4.40613578,2.26817433,-0.95212997,-2.01473943

>  <Name>
ligand

>  <RI>
0

>  <Rbt.Current_Directory>
/home/itssahil/PROJECTS/Mol_Feturizer/Test_systems_manuscript/rnas/4lx5

>  <Rbt.Executable>
rbdock ($Id: //depot/dev/client3/rdock/2013.1/src/exe/rbdock.cxx#4 $)

>  <Rbt.Library>
libRbt.so (2013.1, Build901 2013/11/27)

>  <Rbt.Parameter_File>
/export/apps/rDock/src/rDock_2013.1_src/data/scripts/dock_solv.prm

>  <Rbt.Receptor>
prm/pocket_docking_7.prm

>  <SCORE>
-15.0672

>  <SCORE.INTER>
-15.0672

>  <SCORE.INTER.CONST>
1

>  <SCORE.INTER.POLAR>
0

>  <SCORE.INTER.ROT>
0

>  <SCORE.INTER.SOLV>
15.6471

>  <SCORE.INTER.VDW>
-18.8605

>  <SCORE.INTER.norm>
-1.2556

>  <SCORE.INTRA>
0

>  <SCORE.INTRA.DIHEDRAL>
0

>  <SCORE.INTRA.DIHEDRAL.0>
0

>  <SCORE.INTRA.POLAR>
0

>  <SCORE.INTRA.POLAR.0>
0

>  <SCORE.INTRA.REPUL>
0

>  <SCORE.INTRA.REPUL.0>
0

>  <SCORE.INTRA.SOLV>
0

>  <SCORE.INTRA.SOLV.lig_0>
-48.1583

>  <SCORE.INTRA.VDW>
0

>  <SCORE.INTRA.VDW.0>
0

>  <SCORE.INTRA.norm>
0

>  <SCORE.RESTR>
0

>  <SCORE.RESTR.CAVITY>
0

>  <SCORE.RESTR.norm>
0

>  <SCORE.SYSTEM>
0

>  <SCORE.SYSTEM.CONST>
0

>  <SCORE.SYSTEM.DIHEDRAL>
0

>  <SCORE.SYSTEM.SOLV>
0

>  <SCORE.SYSTEM.norm>
0

>  <SCORE.heavy>
12

>  <SCORE.norm>
-1.2556

>  <RMSD>
3.048

$$$$
ligand
 OpenBabel02271912143D
libRbt.so/2013.1/901 2013/11/27
 12 13  0  0  0  0  0  0  0  0999 V2000
    4.6890   15.4671    3.9684 C   0  0  0  0  0  0  0  0  0  0  0  0
    6.0384   17.0730    2.9509 C   0  0  0  0  0  0  0  0  0  0  0  0
    4.0074   14.3285    3.8789 N   0  0  0  0  0  0  0  0  0  0  0  0
    6.6744   17.5870    1.8925 N   0  0  0  0  0  0  0  0  0  0  0  0
    5.3256   15.9412    2.8751 N   0  0  0  0  0  0  0  0  0  0  0  0
    4.7567   16.1148    5.1526 N   0  0  0  0  0  0  0  0  0  0  0  0
    6.9007   19.6387    5.4690 N   0  0  0  0  0  0  0  0  0  0  0  0
    6.2311   19.1129    6.5846 C   0  0  0  0  0  0  0  0  0  0  0  0
    5.4925   17.9125    6.4650 N   0  0  0  0  0  0  0  0  0  0  0  0
    5.4565   17.2701    5.2776 C   0  0  0  0  0  0  0  0  0  0  0  0
    6.1279   17.7749    4.1593 C   0  0  0  0  0  0  0  0  0  0  0  0
    6.8566   18.9605    4.2348 C   0  0  0  0  0  0  0  0  0  0  0  0
  1  3  1  0  0  0  0
  1  5  1  0  0  0  0
  1  6  2  0  0  0  0
  2  5  2  0  0  0  0
  2 11  1  0  0  0  0
  2  4  1  0  0  0  0
  6 10  1  0  0  0  0
  7  8  2  0  0  0  0
  7 12  1  0  0  0  0
  8  9  1  0  0  0  0
  9 10  2  0  0  0  0
 10 11  1  0  0  0  0
 11 12  2  0  0  0  0
M  END
>  <CHROM.1>
5.69871389,17.23865108,4.39982808,2.27115990,-0.95572613,-2.01477012

>  <Name>
ligand

>  <RI>
0

>  <Rbt.Current_Directory>
/home/itssahil/PROJECTS/Mol_Feturizer/Test_systems_manuscript/rnas/4lx5

>  <Rbt.Executable>
rbdock ($Id: //depot/dev/client3/rdock/2013.1/src/exe/rbdock.cxx#4 $)

>  <Rbt.Library>
libRbt.so (2013.1, Build901 2013/11/27)

>  <Rbt.Parameter_File>
/export/apps/rDock/src/rDock_2013.1_src/data/scripts/dock_solv.prm

>  <Rbt.Receptor>
prm/pocket_docking_7.prm

>  <SCORE>
-15.0432

>  <SCORE.INTER>
-15.0432

>  <SCORE.INTER.CONST>
1

>  <SCORE.INTER.POLAR>
0

>  <SCORE.INTER.ROT>
0

>  <SCORE.INTER.SOLV>
15.6115

>  <SCORE.INTER.VDW>
-18.8326

>  <SCORE.INTER.norm>
-1.2536

>  <SCORE.INTRA>
0

>  <SCORE.INTRA.DIHEDRAL>
0

>  <SCORE.INTRA.DIHEDRAL.0>
0

>  <SCORE.INTRA.POLAR>
0

>  <SCORE.INTRA.POLAR.0>
0

>  <SCORE.INTRA.REPUL>
0

>  <SCORE.INTRA.REPUL.0>
0

>  <SCORE.INTRA.SOLV>
0

>  <SCORE.INTRA.SOLV.lig_0>
-48.1583

>  <SCORE.INTRA.VDW>
0

>  <SCORE.INTRA.VDW.0>
0

>  <SCORE.INTRA.norm>
0

>  <SCORE.RESTR>
0

>  <SCORE.RESTR.CAVITY>
0

>  <SCORE.RESTR.norm>
0

>  <SCORE.SYSTEM>
0

>  <SCORE.SYSTEM.CONST>
0

>  <SCORE.SYSTEM.DIHEDRAL>
0

>  <SCORE.SYSTEM.SOLV>
0

>  <SCORE.SYSTEM.norm>
0

>  <SCORE.heavy>
12

>  <SCORE.norm>
-1.2536

>  <RMSD>
3.048

$$$$
ligand
 OpenBabel02271912143D
libRbt.so/2013.1/901 2013/11/27
 12 13  0  0  0  0  0  0  0  0999 V2000
    4.6879   15.4743    3.9633 C   0  0  0  0  0  0  0  0  0  0  0  0
    6.0446   17.0793    2.9541 C   0  0  0  0  0  0  0  0  0  0  0  0
    4.0046   14.3372    3.8691 N   0  0  0  0  0  0  0  0  0  0  0  0
    6.6860   17.5938    1.8992 N   0  0  0  0  0  0  0  0  0  0  0  0
    5.3300   15.9490    2.8735 N   0  0  0  0  0  0  0  0  0  0  0  0
    4.7518   16.1201    5.1489 N   0  0  0  0  0  0  0  0  0  0  0  0
    6.9010   19.6395    5.4799 N   0  0  0  0  0  0  0  0  0  0  0  0
    6.2257   19.1131    6.5918 C   0  0  0  0  0  0  0  0  0  0  0  0
    5.4854   17.9143    6.4671 N   0  0  0  0  0  0  0  0  0  0  0  0
    5.4532   17.2738    5.2786 C   0  0  0  0  0  0  0  0  0  0  0  0
    6.1303   17.7792    4.1640 C   0  0  0  0  0  0  0  0  0  0  0  0
    6.8608   18.9632    4.2445 C   0  0  0  0  0  0  0  0  0  0  0  0
  1  3  1  0  0  0  0
  1  5  1  0  0  0  0
  1  6  2  0  0  0  0
  2  5  2  0  0  0  0
  2 11  1  0  0  0  0
  2  4  1  0  0  0  0
  6 10  1  0  0  0  0
  7  8  2  0  0  0  0
  7 12  1  0  0  0  0
  8  9  1  0  0  0  0
  9 10  2  0  0  0  0
 10 11  1  0  0  0  0
 11 12  2  0  0  0  0
M  END
>  <CHROM.1>
5.69909468,17.24334450,4.40183645,2.26594464,-0.95223102,-2.01744332

>  <Name>
ligand

>  <RI>
0

>  <Rbt.Current_Directory>
/home/itssahil/PROJECTS/Mol_Feturizer/Test_systems_manuscript/rnas/4lx5

>  <Rbt.Executable>
rbdock ($Id: //depot/dev/client3/rdock/2013.1/src/exe/rbdock.cxx#4 $)

>  <Rbt.Library>
libRbt.so (2013.1, Build901 2013/11/27)

>  <Rbt.Parameter_File>
/export/apps/rDock/src/rDock_2013.1_src/data/scripts/dock_solv.prm

>  <Rbt.Receptor>
prm/pocket_docking_7.prm

>  <SCORE>
-15.0803

>  <SCORE.INTER>
-15.0803

>  <SCORE.INTER.CONST>
1

>  <SCORE.INTER.POLAR>
0

>  <SCORE.INTER.ROT>
0

>  <SCORE.INTER.SOLV>
15.5956

>  <SCORE.INTER.VDW>
-18.852

>  <SCORE.INTER.norm>
-1.25669

>  <SCORE.INTRA>
0

>  <SCORE.INTRA.DIHEDRAL>
0

>  <SCORE.INTRA.DIHEDRAL.0>
0

>  <SCORE.INTRA.POLAR>
0

>  <SCORE.INTRA.POLAR.0>
0

>  <SCORE.INTRA.REPUL>
0

>  <SCORE.INTRA.REPUL.0>
0

>  <SCORE.INTRA.SOLV>
0

>  <SCORE.INTRA.SOLV.lig_0>
-48.1583

>  <SCORE.INTRA.VDW>
0

>  <SCORE.INTRA.VDW.0>
0

>  <SCORE.INTRA.norm>
0

>  <SCORE.RESTR>
0

>  <SCORE.RESTR.CAVITY>
0

>  <SCORE.RESTR.norm>
0

>  <SCORE.SYSTEM>
0

>  <SCORE.SYSTEM.CONST>
0

>  <SCORE.SYSTEM.DIHEDRAL>
0

>  <SCORE.SYSTEM.SOLV>
0

>  <SCORE.SYSTEM.norm>
0

>  <SCORE.heavy>
12

>  <SCORE.norm>
-1.25669

>  <RMSD>
3.048

$$$$
ligand
 OpenBabel02271912143D
libRbt.so/2013.1/901 2013/11/27
 12 13  0  0  0  0  0  0  0  0999 V2000
    4.7008   15.4759    3.9680 C   0  0  0  0  0  0  0  0  0  0  0  0
    6.0546   17.0846    2.9608 C   0  0  0  0  0  0  0  0  0  0  0  0
    4.0184   14.3384    3.8720 N   0  0  0  0  0  0  0  0  0  0  0  0
    6.6941   17.6022    1.9062 N   0  0  0  0  0  0  0  0  0  0  0  0
    5.3409   15.9538    2.8785 N   0  0  0  0  0  0  0  0  0  0  0  0
    4.7658   16.1189    5.1550 N   0  0  0  0  0  0  0  0  0  0  0  0
    6.9124   19.6394    5.4915 N   0  0  0  0  0  0  0  0  0  0  0  0
    6.2391   19.1097    6.6031 C   0  0  0  0  0  0  0  0  0  0  0  0
    5.4997   17.9105    6.4766 N   0  0  0  0  0  0  0  0  0  0  0  0
    5.4664   17.2729    5.2866 C   0  0  0  0  0  0  0  0  0  0  0  0
    6.1414   17.7815    4.1722 C   0  0  0  0  0  0  0  0  0  0  0  0
    6.8710   18.9661    4.2545 C   0  0  0  0  0  0  0  0  0  0  0  0
  1  3  1  0  0  0  0
  1  5  1  0  0  0  0
  1  6  2  0  0  0  0
  2  5  2  0  0  0  0
  2 11  1  0  0  0  0
  2  4  1  0  0  0  0
  6 10  1  0  0  0  0
  7  8  2  0  0  0  0
  7 12  1  0  0  0  0
  8  9  1  0  0  0  0
  9 10  2  0  0  0  0
 10 11  1  0  0  0  0
 11 12  2  0  0  0  0
M  END
>  <CHROM.1>
5.71106258,17.24476660,4.40939578,2.26750311,-0.95364891,-2.01373756

>  <Name>
ligand

>  <RI>
0

>  <Rbt.Current_Directory>
/home/itssahil/PROJECTS/Mol_Feturizer/Test_systems_manuscript/rnas/4lx5

>  <Rbt.Executable>
rbdock ($Id: //depot/dev/client3/rdock/2013.1/src/exe/rbdock.cxx#4 $)

>  <Rbt.Library>
libRbt.so (2013.1, Build901 2013/11/27)

>  <Rbt.Parameter_File>
/export/apps/rDock/src/rDock_2013.1_src/data/scripts/dock_solv.prm

>  <Rbt.Receptor>
prm/pocket_docking_8.prm

>  <SCORE>
-15.066

>  <SCORE.INTER>
-15.066

>  <SCORE.INTER.CONST>
1

>  <SCORE.INTER.POLAR>
0

>  <SCORE.INTER.ROT>
0

>  <SCORE.INTER.SOLV>
15.6642

>  <SCORE.INTER.VDW>
-18.8654

>  <SCORE.INTER.norm>
-1.2555

>  <SCORE.INTRA>
0

>  <SCORE.INTRA.DIHEDRAL>
0

>  <SCORE.INTRA.DIHEDRAL.0>
0

>  <SCORE.INTRA.POLAR>
0

>  <SCORE.INTRA.POLAR.0>
0

>  <SCORE.INTRA.REPUL>
0

>  <SCORE.INTRA.REPUL.0>
0

>  <SCORE.INTRA.SOLV>
0

>  <SCORE.INTRA.SOLV.lig_0>
-48.1583

>  <SCORE.INTRA.VDW>
0

>  <SCORE.INTRA.VDW.0>
0

>  <SCORE.INTRA.norm>
0

>  <SCORE.RESTR>
0

>  <SCORE.RESTR.CAVITY>
0

>  <SCORE.RESTR.norm>
0

>  <SCORE.SYSTEM>
0

>  <SCORE.SYSTEM.CONST>
0

>  <SCORE.SYSTEM.DIHEDRAL>
0

>  <SCORE.SYSTEM.SOLV>
0

>  <SCORE.SYSTEM.norm>
0

>  <SCORE.heavy>
12

>  <SCORE.norm>
-1.2555

>  <RMSD>
3.048

$$$$
ligand
 OpenBabel02271912143D
libRbt.so/2013.1/901 2013/11/27
 12 13  0  0  0  0  0  0  0  0999 V2000
    4.6786   15.4741    3.9642 C   0  0  0  0  0  0  0  0  0  0  0  0
    6.0353   17.0779    2.9532 C   0  0  0  0  0  0  0  0  0  0  0  0
    3.9949   14.3371    3.8713 N   0  0  0  0  0  0  0  0  0  0  0  0
    6.6764   17.5913    1.8975 N   0  0  0  0  0  0  0  0  0  0  0  0
    5.3204   15.9477    2.8738 N   0  0  0  0  0  0  0  0  0  0  0  0
    4.7432   16.1209    5.1493 N   0  0  0  0  0  0  0  0  0  0  0  0
    6.8937   19.6399    5.4765 N   0  0  0  0  0  0  0  0  0  0  0  0
    6.2187   19.1146    6.5891 C   0  0  0  0  0  0  0  0  0  0  0  0
    5.4780   17.9159    6.4657 N   0  0  0  0  0  0  0  0  0  0  0  0
    5.4451   17.2745    5.2777 C   0  0  0  0  0  0  0  0  0  0  0  0
    6.1218   17.7787    4.1624 C   0  0  0  0  0  0  0  0  0  0  0  0
    6.8527   18.9626    4.2416 C   0  0  0  0  0  0  0  0  0  0  0  0
  1  3  1  0  0  0  0
  1  5  1  0  0  0  0
  1  6  2  0  0  0  0
  2  5  2  0  0  0  0
  2 11  1  0  0  0  0
  2  4  1  0  0  0  0
  6 10  1  0  0  0  0
  7  8  2  0  0  0  0
  7 12  1  0  0  0  0
  8  9  1  0  0  0  0
  9 10  2  0  0  0  0
 10 11  1  0  0  0  0
 11 12  2  0  0  0  0
M  END
>  <CHROM.1>
5.69053744,17.24320256,4.40089423,2.26685578,-0.95213830,-2.01750587

>  <Name>
ligand

>  <RI>
0

>  <Rbt.Current_Directory>
/home/itssahil/PROJECTS/Mol_Feturizer/Test_systems_manuscript/rnas/4lx5

>  <Rbt.Executable>
rbdock ($Id: //depot/dev/client3/rdock/2013.1/src/exe/rbdock.cxx#4 $)

>  <Rbt.Library>
libRbt.so (2013.1, Build901 2013/11/27)

>  <Rbt.Parameter_File>
/export/apps/rDock/src/rDock_2013.1_src/data/scripts/dock_solv.prm

>  <Rbt.Receptor>
prm/blind_docking_100.prm

>  <SCORE>
-15.0469

>  <SCORE.INTER>
-15.0469

>  <SCORE.INTER.CONST>
1

>  <SCORE.INTER.POLAR>
0

>  <SCORE.INTER.ROT>
0

>  <SCORE.INTER.SOLV>
15.5414

>  <SCORE.INTER.VDW>
-18.8118

>  <SCORE.INTER.norm>
-1.25391

>  <SCORE.INTRA>
0

>  <SCORE.INTRA.DIHEDRAL>
0

>  <SCORE.INTRA.DIHEDRAL.0>
0

>  <SCORE.INTRA.POLAR>
0

>  <SCORE.INTRA.POLAR.0>
0

>  <SCORE.INTRA.REPUL>
0

>  <SCORE.INTRA.REPUL.0>
0

>  <SCORE.INTRA.SOLV>
0

>  <SCORE.INTRA.SOLV.lig_0>
-48.1583

>  <SCORE.INTRA.VDW>
0

>  <SCORE.INTRA.VDW.0>
0

>  <SCORE.INTRA.norm>
0

>  <SCORE.RESTR>
0

>  <SCORE.RESTR.CAVITY>
0

>  <SCORE.RESTR.norm>
0

>  <SCORE.SYSTEM>
0

>  <SCORE.SYSTEM.CONST>
0

>  <SCORE.SYSTEM.DIHEDRAL>
0

>  <SCORE.SYSTEM.SOLV>
0

>  <SCORE.SYSTEM.norm>
0

>  <SCORE.heavy>
12

>  <SCORE.norm>
-1.25391

>  <RMSD>
3.049

$$$$
ligand
 OpenBabel02271912143D
libRbt.so/2013.1/901 2013/11/27
 12 13  0  0  0  0  0  0  0  0999 V2000
    4.6673   15.4619    3.9561 C   0  0  0  0  0  0  0  0  0  0  0  0
    6.0384   17.0609    2.9570 C   0  0  0  0  0  0  0  0  0  0  0  0
    3.9778   14.3290    3.8561 N   0  0  0  0  0  0  0  0  0  0  0  0
    6.6881   17.5739    1.9064 N   0  0  0  0  0  0  0  0  0  0  0  0
    5.3176   15.9351    2.8705 N   0  0  0  0  0  0  0  0  0  0  0  0
    4.7292   16.1047    5.1433 N   0  0  0  0  0  0  0  0  0  0  0  0
    6.8975   19.6106    5.4925 N   0  0  0  0  0  0  0  0  0  0  0  0
    6.2136   19.0859    6.5999 C   0  0  0  0  0  0  0  0  0  0  0  0
    5.4669   17.8918    6.4691 N   0  0  0  0  0  0  0  0  0  0  0  0
    5.4368   17.2540    5.2790 C   0  0  0  0  0  0  0  0  0  0  0  0
    6.1223   17.7577    4.1688 C   0  0  0  0  0  0  0  0  0  0  0  0
    6.8594   18.9373    4.2554 C   0  0  0  0  0  0  0  0  0  0  0  0
  1  3  1  0  0  0  0
  1  5  1  0  0  0  0
  1  6  2  0  0  0  0
  2  5  2  0  0  0  0
  2 11  1  0  0  0  0
  2  4  1  0  0  0  0
  6 10  1  0  0  0  0
  7  8  2  0  0  0  0
  7 12  1  0  0  0  0
  8  9  1  0  0  0  0
  9 10  2  0  0  0  0
 10 11  1  0  0  0  0
 11 12  2  0  0  0  0
M  END
>  <CHROM.1>
5.68679320,17.22394270,4.40339162,2.26270074,-0.94475383,-2.01793614

>  <Name>
ligand

>  <RI>
0

>  <Rbt.Current_Directory>
/home/itssahil/PROJECTS/Mol_Feturizer/Test_systems_manuscript/rnas/4lx5

>  <Rbt.Executable>
rbdock ($Id: //depot/dev/client3/rdock/2013.1/src/exe/rbdock.cxx#4 $)

>  <Rbt.Library>
libRbt.so (2013.1, Build901 2013/11/27)

>  <Rbt.Parameter_File>
/export/apps/rDock/src/rDock_2013.1_src/data/scripts/dock_solv.prm

>  <Rbt.Receptor>
prm/pocket_docking_3.prm

>  <SCORE>
-15.0194

>  <SCORE.INTER>
-15.0194

>  <SCORE.INTER.CONST>
1

>  <SCORE.INTER.POLAR>
0

>  <SCORE.INTER.ROT>
0

>  <SCORE.INTER.SOLV>
15.4485

>  <SCORE.INTER.VDW>
-18.7624

>  <SCORE.INTER.norm>
-1.25162

>  <SCORE.INTRA>
0

>  <SCORE.INTRA.DIHEDRAL>
0

>  <SCORE.INTRA.DIHEDRAL.0>
0

>  <SCORE.INTRA.POLAR>
0

>  <SCORE.INTRA.POLAR.0>
0

>  <SCORE.INTRA.REPUL>
0

>  <SCORE.INTRA.REPUL.0>
0

>  <SCORE.INTRA.SOLV>
0

>  <SCORE.INTRA.SOLV.lig_0>
-48.1583

>  <SCORE.INTRA.VDW>
0

>  <SCORE.INTRA.VDW.0>
0

>  <SCORE.INTRA.norm>
0

>  <SCORE.RESTR>
0

>  <SCORE.RESTR.CAVITY>
0

>  <SCORE.RESTR.norm>
0

>  <SCORE.SYSTEM>
0

>  <SCORE.SYSTEM.CONST>
0

>  <SCORE.SYSTEM.DIHEDRAL>
0

>  <SCORE.SYSTEM.SOLV>
0

>  <SCORE.SYSTEM.norm>
0

>  <SCORE.heavy>
12

>  <SCORE.norm>
-1.25162

>  <RMSD>
3.049

$$$$
ligand
 OpenBabel02271912143D
libRbt.so/2013.1/901 2013/11/27
 12 13  0  0  0  0  0  0  0  0999 V2000
    4.6750   15.4709    3.9572 C   0  0  0  0  0  0  0  0  0  0  0  0
    6.0354   17.0795    2.9589 C   0  0  0  0  0  0  0  0  0  0  0  0
    3.9890   14.3361    3.8553 N   0  0  0  0  0  0  0  0  0  0  0  0
    6.6779   17.5998    1.9074 N   0  0  0  0  0  0  0  0  0  0  0  0
    5.3181   15.9516    2.8706 N   0  0  0  0  0  0  0  0  0  0  0  0
    4.7407   16.1083    5.1472 N   0  0  0  0  0  0  0  0  0  0  0  0
    6.8985   19.6201    5.5022 N   0  0  0  0  0  0  0  0  0  0  0  0
    6.2220   19.0877    6.6105 C   0  0  0  0  0  0  0  0  0  0  0  0
    5.4788   17.8916    6.4777 N   0  0  0  0  0  0  0  0  0  0  0  0
    5.4449   17.2594    5.2848 C   0  0  0  0  0  0  0  0  0  0  0  0
    6.1230   17.7708    4.1736 C   0  0  0  0  0  0  0  0  0  0  0  0
    6.8564   18.9525    4.2621 C   0  0  0  0  0  0  0  0  0  0  0  0
  1  3  1  0  0  0  0
  1  5  1  0  0  0  0
  1  6  2  0  0  0  0
  2  5  2  0  0  0  0
  2 11  1  0  0  0  0
  2  4  1  0  0  0  0
  6 10  1  0  0  0  0
  7  8  2  0  0  0  0
  7 12  1  0  0  0  0
  8  9  1  0  0  0  0
  9 10  2  0  0  0  0
 10 11  1  0  0  0  0
 11 12  2  0  0  0  0
M  END
>  <CHROM.1>
5.69056771,17.23439090,4.40778000,2.26798521,-0.95011900,-2.00885412

>  <Name>
ligand

>  <RI>
0

>  <Rbt.Current_Directory>
/home/itssahil/PROJECTS/Mol_Feturizer/Test_systems_manuscript/rnas/4lx5

>  <Rbt.Executable>
rbdock ($Id: //depot/dev/client3/rdock/2013.1/src/exe/rbdock.cxx#4 $)

>  <Rbt.Library>
libRbt.so (2013.1, Build901 2013/11/27)

>  <Rbt.Parameter_File>
/export/apps/rDock/src/rDock_2013.1_src/data/scripts/dock_solv.prm

>  <Rbt.Receptor>
prm/pocket_docking_3.prm

>  <SCORE>
-15.0524

>  <SCORE.INTER>
-15.0524

>  <SCORE.INTER.CONST>
1

>  <SCORE.INTER.POLAR>
0

>  <SCORE.INTER.ROT>
0

>  <SCORE.INTER.SOLV>
15.49

>  <SCORE.INTER.VDW>
-18.7983

>  <SCORE.INTER.norm>
-1.25436

>  <SCORE.INTRA>
0

>  <SCORE.INTRA.DIHEDRAL>
0

>  <SCORE.INTRA.DIHEDRAL.0>
0

>  <SCORE.INTRA.POLAR>
0

>  <SCORE.INTRA.POLAR.0>
0

>  <SCORE.INTRA.REPUL>
0

>  <SCORE.INTRA.REPUL.0>
0

>  <SCORE.INTRA.SOLV>
0

>  <SCORE.INTRA.SOLV.lig_0>
-48.1583

>  <SCORE.INTRA.VDW>
0

>  <SCORE.INTRA.VDW.0>
0

>  <SCORE.INTRA.norm>
0

>  <SCORE.RESTR>
0

>  <SCORE.RESTR.CAVITY>
0

>  <SCORE.RESTR.norm>
0

>  <SCORE.SYSTEM>
0

>  <SCORE.SYSTEM.CONST>
0

>  <SCORE.SYSTEM.DIHEDRAL>
0

>  <SCORE.SYSTEM.SOLV>
0

>  <SCORE.SYSTEM.norm>
0

>  <SCORE.heavy>
12

>  <SCORE.norm>
-1.25436

>  <RMSD>
3.049

$$$$
ligand
 OpenBabel02271912143D
libRbt.so/2013.1/901 2013/11/27
 12 13  0  0  0  0  0  0  0  0999 V2000
    4.6797   15.4636    3.9663 C   0  0  0  0  0  0  0  0  0  0  0  0
    6.0399   17.0617    2.9509 C   0  0  0  0  0  0  0  0  0  0  0  0
    3.9956   14.3265    3.8771 N   0  0  0  0  0  0  0  0  0  0  0  0
    6.6842   17.5695    1.8945 N   0  0  0  0  0  0  0  0  0  0  0  0
    5.3246   15.9315    2.8753 N   0  0  0  0  0  0  0  0  0  0  0  0
    4.7414   16.1162    5.1483 N   0  0  0  0  0  0  0  0  0  0  0  0
    6.8928   19.6357    5.4638 N   0  0  0  0  0  0  0  0  0  0  0  0
    6.2145   19.1163    6.5772 C   0  0  0  0  0  0  0  0  0  0  0  0
    5.4735   17.9174    6.4578 N   0  0  0  0  0  0  0  0  0  0  0  0
    5.4435   17.2701    5.2729 C   0  0  0  0  0  0  0  0  0  0  0  0
    6.1235   17.7684    4.1569 C   0  0  0  0  0  0  0  0  0  0  0  0
    6.8548   18.9524    4.2323 C   0  0  0  0  0  0  0  0  0  0  0  0
  1  3  1  0  0  0  0
  1  5  1  0  0  0  0
  1  6  2  0  0  0  0
  2  5  2  0  0  0  0
  2 11  1  0  0  0  0
  2  4  1  0  0  0  0
  6 10  1  0  0  0  0
  7  8  2  0  0  0  0
  7 12  1  0  0  0  0
  8  9  1  0  0  0  0
  9 10  2  0  0  0  0
 10 11  1  0  0  0  0
 11 12  2  0  0  0  0
M  END
>  <CHROM.1>
5.69133558,17.23432884,4.39691299,2.26303591,-0.95050303,-2.02557521

>  <Name>
ligand

>  <RI>
0

>  <Rbt.Current_Directory>
/home/itssahil/PROJECTS/Mol_Feturizer/Test_systems_manuscript/rnas/4lx5

>  <Rbt.Executable>
rbdock ($Id: //depot/dev/client3/rdock/2013.1/src/exe/rbdock.cxx#4 $)

>  <Rbt.Library>
libRbt.so (2013.1, Build901 2013/11/27)

>  <Rbt.Parameter_File>
/export/apps/rDock/src/rDock_2013.1_src/data/scripts/dock_solv.prm

>  <Rbt.Receptor>
prm/pocket_docking_3.prm

>  <SCORE>
-15.0424

>  <SCORE.INTER>
-15.0424

>  <SCORE.INTER.CONST>
1

>  <SCORE.INTER.POLAR>
0

>  <SCORE.INTER.ROT>
0

>  <SCORE.INTER.SOLV>
15.5676

>  <SCORE.INTER.VDW>
-18.8175

>  <SCORE.INTER.norm>
-1.25353

>  <SCORE.INTRA>
0

>  <SCORE.INTRA.DIHEDRAL>
0

>  <SCORE.INTRA.DIHEDRAL.0>
0

>  <SCORE.INTRA.POLAR>
0

>  <SCORE.INTRA.POLAR.0>
0

>  <SCORE.INTRA.REPUL>
0

>  <SCORE.INTRA.REPUL.0>
0

>  <SCORE.INTRA.SOLV>
0

>  <SCORE.INTRA.SOLV.lig_0>
-48.1583

>  <SCORE.INTRA.VDW>
0

>  <SCORE.INTRA.VDW.0>
0

>  <SCORE.INTRA.norm>
0

>  <SCORE.RESTR>
0

>  <SCORE.RESTR.CAVITY>
0

>  <SCORE.RESTR.norm>
0

>  <SCORE.SYSTEM>
0

>  <SCORE.SYSTEM.CONST>
0

>  <SCORE.SYSTEM.DIHEDRAL>
0

>  <SCORE.SYSTEM.SOLV>
0

>  <SCORE.SYSTEM.norm>
0

>  <SCORE.heavy>
12

>  <SCORE.norm>
-1.25353

>  <RMSD>
3.049

$$$$
ligand
 OpenBabel02271912143D
libRbt.so/2013.1/901 2013/11/27
 12 13  0  0  0  0  0  0  0  0999 V2000
    4.6741   15.4707    3.9616 C   0  0  0  0  0  0  0  0  0  0  0  0
    6.0381   17.0694    2.9522 C   0  0  0  0  0  0  0  0  0  0  0  0
    3.9890   14.3345    3.8686 N   0  0  0  0  0  0  0  0  0  0  0  0
    6.6849   17.5788    1.8981 N   0  0  0  0  0  0  0  0  0  0  0  0
    5.3217   15.9401    2.8728 N   0  0  0  0  0  0  0  0  0  0  0  0
    4.7343   16.1207    5.1450 N   0  0  0  0  0  0  0  0  0  0  0  0
    6.8889   19.6371    5.4722 N   0  0  0  0  0  0  0  0  0  0  0  0
    6.2078   19.1161    6.5832 C   0  0  0  0  0  0  0  0  0  0  0  0
    5.4658   17.9183    6.4598 N   0  0  0  0  0  0  0  0  0  0  0  0
    5.4374   17.2735    5.2735 C   0  0  0  0  0  0  0  0  0  0  0  0
    6.1201   17.7735    4.1599 C   0  0  0  0  0  0  0  0  0  0  0  0
    6.8526   18.9564    4.2391 C   0  0  0  0  0  0  0  0  0  0  0  0
  1  3  1  0  0  0  0
  1  5  1  0  0  0  0
  1  6  2  0  0  0  0
  2  5  2  0  0  0  0
  2 11  1  0  0  0  0
  2  4  1  0  0  0  0
  6 10  1  0  0  0  0
  7  8  2  0  0  0  0
  7 12  1  0  0  0  0
  8  9  1  0  0  0  0
  9 10  2  0  0  0  0
 10 11  1  0  0  0  0
 11 12  2  0  0  0  0
M  END
>  <CHROM.1>
5.68686717,17.23935190,4.39787605,2.26085280,-0.94867264,-2.02524269

>  <Name>
ligand

>  <RI>
0

>  <Rbt.Current_Directory>
/home/itssahil/PROJECTS/Mol_Feturizer/Test_systems_manuscript/rnas/4lx5

>  <Rbt.Executable>
rbdock ($Id: //depot/dev/client3/rdock/2013.1/src/exe/rbdock.cxx#4 $)

>  <Rbt.Library>
libRbt.so (2013.1, Build901 2013/11/27)

>  <Rbt.Parameter_File>
/export/apps/rDock/src/rDock_2013.1_src/data/scripts/dock_solv.prm

>  <Rbt.Receptor>
prm/pocket_docking_3.prm

>  <SCORE>
-15.0419

>  <SCORE.INTER>
-15.0419

>  <SCORE.INTER.CONST>
1

>  <SCORE.INTER.POLAR>
0

>  <SCORE.INTER.ROT>
0

>  <SCORE.INTER.SOLV>
15.5235

>  <SCORE.INTER.VDW>
-18.8025

>  <SCORE.INTER.norm>
-1.25349

>  <SCORE.INTRA>
0

>  <SCORE.INTRA.DIHEDRAL>
0

>  <SCORE.INTRA.DIHEDRAL.0>
0

>  <SCORE.INTRA.POLAR>
0

>  <SCORE.INTRA.POLAR.0>
0

>  <SCORE.INTRA.REPUL>
0

>  <SCORE.INTRA.REPUL.0>
0

>  <SCORE.INTRA.SOLV>
0

>  <SCORE.INTRA.SOLV.lig_0>
-48.1583

>  <SCORE.INTRA.VDW>
0

>  <SCORE.INTRA.VDW.0>
0

>  <SCORE.INTRA.norm>
0

>  <SCORE.RESTR>
0

>  <SCORE.RESTR.CAVITY>
0

>  <SCORE.RESTR.norm>
0

>  <SCORE.SYSTEM>
0

>  <SCORE.SYSTEM.CONST>
0

>  <SCORE.SYSTEM.DIHEDRAL>
0

>  <SCORE.SYSTEM.SOLV>
0

>  <SCORE.SYSTEM.norm>
0

>  <SCORE.heavy>
12

>  <SCORE.norm>
-1.25349

>  <RMSD>
3.049

$$$$
ligand
 OpenBabel02271912143D
libRbt.so/2013.1/901 2013/11/27
 12 13  0  0  0  0  0  0  0  0999 V2000
    4.6775   15.4699    3.9630 C   0  0  0  0  0  0  0  0  0  0  0  0
    6.0406   17.0692    2.9534 C   0  0  0  0  0  0  0  0  0  0  0  0
    3.9927   14.3335    3.8701 N   0  0  0  0  0  0  0  0  0  0  0  0
    6.6868   17.5790    1.8991 N   0  0  0  0  0  0  0  0  0  0  0  0
    5.3244   15.9398    2.8740 N   0  0  0  0  0  0  0  0  0  0  0  0
    4.7380   16.1196    5.1466 N   0  0  0  0  0  0  0  0  0  0  0  0
    6.8918   19.6365    5.4736 N   0  0  0  0  0  0  0  0  0  0  0  0
    6.2115   19.1151    6.5848 C   0  0  0  0  0  0  0  0  0  0  0  0
    5.4697   17.9171    6.4614 N   0  0  0  0  0  0  0  0  0  0  0  0
    5.4409   17.2726    5.2750 C   0  0  0  0  0  0  0  0  0  0  0  0
    6.1229   17.7730    4.1612 C   0  0  0  0  0  0  0  0  0  0  0  0
    6.8551   18.9561    4.2404 C   0  0  0  0  0  0  0  0  0  0  0  0
  1  3  1  0  0  0  0
  1  5  1  0  0  0  0
  1  6  2  0  0  0  0
  2  5  2  0  0  0  0
  2 11  1  0  0  0  0
  2  4  1  0  0  0  0
  6 10  1  0  0  0  0
  7  8  2  0  0  0  0
  7 12  1  0  0  0  0
  8  9  1  0  0  0  0
  9 10  2  0  0  0  0
 10 11  1  0  0  0  0
 11 12  2  0  0  0  0
M  END
>  <CHROM.1>
5.68997943,17.23870345,4.39924681,2.26139211,-0.94911826,-2.02455661

>  <Name>
ligand

>  <RI>
0

>  <Rbt.Current_Directory>
/home/itssahil/PROJECTS/Mol_Feturizer/Test_systems_manuscript/rnas/4lx5

>  <Rbt.Executable>
rbdock ($Id: //depot/dev/client3/rdock/2013.1/src/exe/rbdock.cxx#4 $)

>  <Rbt.Library>
libRbt.so (2013.1, Build901 2013/11/27)

>  <Rbt.Parameter_File>
/export/apps/rDock/src/rDock_2013.1_src/data/scripts/dock_solv.prm

>  <Rbt.Receptor>
prm/pocket_docking_4.prm

>  <SCORE>
-15.042

>  <SCORE.INTER>
-15.042

>  <SCORE.INTER.CONST>
1

>  <SCORE.INTER.POLAR>
0

>  <SCORE.INTER.ROT>
0

>  <SCORE.INTER.SOLV>
15.5432

>  <SCORE.INTER.VDW>
-18.8091

>  <SCORE.INTER.norm>
-1.2535

>  <SCORE.INTRA>
0

>  <SCORE.INTRA.DIHEDRAL>
0

>  <SCORE.INTRA.DIHEDRAL.0>
0

>  <SCORE.INTRA.POLAR>
0

>  <SCORE.INTRA.POLAR.0>
0

>  <SCORE.INTRA.REPUL>
0

>  <SCORE.INTRA.REPUL.0>
0

>  <SCORE.INTRA.SOLV>
0

>  <SCORE.INTRA.SOLV.lig_0>
-48.1583

>  <SCORE.INTRA.VDW>
0

>  <SCORE.INTRA.VDW.0>
0

>  <SCORE.INTRA.norm>
0

>  <SCORE.RESTR>
0

>  <SCORE.RESTR.CAVITY>
0

>  <SCORE.RESTR.norm>
0

>  <SCORE.SYSTEM>
0

>  <SCORE.SYSTEM.CONST>
0

>  <SCORE.SYSTEM.DIHEDRAL>
0

>  <SCORE.SYSTEM.SOLV>
0

>  <SCORE.SYSTEM.norm>
0

>  <SCORE.heavy>
12

>  <SCORE.norm>
-1.2535

>  <RMSD>
3.049

$$$$
ligand
 OpenBabel02271912143D
libRbt.so/2013.1/901 2013/11/27
 12 13  0  0  0  0  0  0  0  0999 V2000
    4.6863   15.4558    3.9662 C   0  0  0  0  0  0  0  0  0  0  0  0
    6.0424   17.0570    2.9504 C   0  0  0  0  0  0  0  0  0  0  0  0
    4.0063   14.3162    3.8778 N   0  0  0  0  0  0  0  0  0  0  0  0
    6.6864   17.5655    1.8942 N   0  0  0  0  0  0  0  0  0  0  0  0
    5.3311   15.9242    2.8754 N   0  0  0  0  0  0  0  0  0  0  0  0
    4.7442   16.1102    5.1473 N   0  0  0  0  0  0  0  0  0  0  0  0
    6.8830   19.6375    5.4608 N   0  0  0  0  0  0  0  0  0  0  0  0
    6.2049   19.1174    6.5740 C   0  0  0  0  0  0  0  0  0  0  0  0
    5.4683   17.9158    6.4553 N   0  0  0  0  0  0  0  0  0  0  0  0
    5.4421   17.2667    5.2713 C   0  0  0  0  0  0  0  0  0  0  0  0
    6.1219   17.7657    4.1555 C   0  0  0  0  0  0  0  0  0  0  0  0
    6.8491   18.9523    4.2301 C   0  0  0  0  0  0  0  0  0  0  0  0
  1  3  1  0  0  0  0
  1  5  1  0  0  0  0
  1  6  2  0  0  0  0
  2  5  2  0  0  0  0
  2 11  1  0  0  0  0
  2  4  1  0  0  0  0
  6 10  1  0  0  0  0
  7  8  2  0  0  0  0
  7 12  1  0  0  0  0
  8  9  1  0  0  0  0
  9 10  2  0  0  0  0
 10 11  1  0  0  0  0
 11 12  2  0  0  0  0
M  END
>  <CHROM.1>
5.69125602,17.23053479,4.39567932,2.25830305,-0.95297819,-2.03087970

>  <Name>
ligand

>  <RI>
0

>  <Rbt.Current_Directory>
/home/itssahil/PROJECTS/Mol_Feturizer/Test_systems_manuscript/rnas/4lx5

>  <Rbt.Executable>
rbdock ($Id: //depot/dev/client3/rdock/2013.1/src/exe/rbdock.cxx#4 $)

>  <Rbt.Library>
libRbt.so (2013.1, Build901 2013/11/27)

>  <Rbt.Parameter_File>
/export/apps/rDock/src/rDock_2013.1_src/data/scripts/dock_solv.prm

>  <Rbt.Receptor>
prm/pocket_docking_4.prm

>  <SCORE>
-15.0421

>  <SCORE.INTER>
-15.0421

>  <SCORE.INTER.CONST>
1

>  <SCORE.INTER.POLAR>
0

>  <SCORE.INTER.ROT>
0

>  <SCORE.INTER.SOLV>
15.6292

>  <SCORE.INTER.VDW>
-18.8378

>  <SCORE.INTER.norm>
-1.25351

>  <SCORE.INTRA>
0

>  <SCORE.INTRA.DIHEDRAL>
0

>  <SCORE.INTRA.DIHEDRAL.0>
0

>  <SCORE.INTRA.POLAR>
0

>  <SCORE.INTRA.POLAR.0>
0

>  <SCORE.INTRA.REPUL>
0

>  <SCORE.INTRA.REPUL.0>
0

>  <SCORE.INTRA.SOLV>
0

>  <SCORE.INTRA.SOLV.lig_0>
-48.1583

>  <SCORE.INTRA.VDW>
0

>  <SCORE.INTRA.VDW.0>
0

>  <SCORE.INTRA.norm>
0

>  <SCORE.RESTR>
0

>  <SCORE.RESTR.CAVITY>
0

>  <SCORE.RESTR.norm>
0

>  <SCORE.SYSTEM>
0

>  <SCORE.SYSTEM.CONST>
0

>  <SCORE.SYSTEM.DIHEDRAL>
0

>  <SCORE.SYSTEM.SOLV>
0

>  <SCORE.SYSTEM.norm>
0

>  <SCORE.heavy>
12

>  <SCORE.norm>
-1.25351

>  <RMSD>
3.049

$$$$
ligand
 OpenBabel02271912143D
libRbt.so/2013.1/901 2013/11/27
 12 13  0  0  0  0  0  0  0  0999 V2000
    4.6080   15.4635    3.9398 C   0  0  0  0  0  0  0  0  0  0  0  0
    5.9516   17.0703    2.9163 C   0  0  0  0  0  0  0  0  0  0  0  0
    3.9183   14.3298    3.8506 N   0  0  0  0  0  0  0  0  0  0  0  0
    6.5747   17.5900    1.8530 N   0  0  0  0  0  0  0  0  0  0  0  0
    5.2310   15.9435    2.8413 N   0  0  0  0  0  0  0  0  0  0  0  0
    4.6973   16.1003    5.1286 N   0  0  0  0  0  0  0  0  0  0  0  0
    6.8669   19.6087    5.4435 N   0  0  0  0  0  0  0  0  0  0  0  0
    6.2109   19.0769    6.5644 C   0  0  0  0  0  0  0  0  0  0  0  0
    5.4635   17.8820    6.4454 N   0  0  0  0  0  0  0  0  0  0  0  0
    5.4058   17.2503    5.2531 C   0  0  0  0  0  0  0  0  0  0  0  0
    6.0634   17.7610    4.1293 C   0  0  0  0  0  0  0  0  0  0  0  0
    6.8002   18.9416    4.2042 C   0  0  0  0  0  0  0  0  0  0  0  0
  1  3  1  0  0  0  0
  1  5  1  0  0  0  0
  1  6  2  0  0  0  0
  2  5  2  0  0  0  0
  2 11  1  0  0  0  0
  2  4  1  0  0  0  0
  6 10  1  0  0  0  0
  7  8  2  0  0  0  0
  7 12  1  0  0  0  0
  8  9  1  0  0  0  0
  9 10  2  0  0  0  0
 10 11  1  0  0  0  0
 11 12  2  0  0  0  0
M  END
>  <CHROM.1>
5.63467284,17.22521982,4.37155245,2.29909922,-0.95657370,-1.98314879

>  <Name>
ligand

>  <RI>
0

>  <Rbt.Current_Directory>
/home/itssahil/PROJECTS/Mol_Feturizer/Test_systems_manuscript/rnas/4lx5

>  <Rbt.Executable>
rbdock ($Id: //depot/dev/client3/rdock/2013.1/src/exe/rbdock.cxx#4 $)

>  <Rbt.Library>
libRbt.so (2013.1, Build901 2013/11/27)

>  <Rbt.Parameter_File>
/export/apps/rDock/src/rDock_2013.1_src/data/scripts/dock_solv.prm

>  <Rbt.Receptor>
prm/pocket_docking_5.prm

>  <SCORE>
-14.921

>  <SCORE.INTER>
-14.921

>  <SCORE.INTER.CONST>
1

>  <SCORE.INTER.POLAR>
0

>  <SCORE.INTER.ROT>
0

>  <SCORE.INTER.SOLV>
15.1601

>  <SCORE.INTER.VDW>
-18.6007

>  <SCORE.INTER.norm>
-1.24342

>  <SCORE.INTRA>
0

>  <SCORE.INTRA.DIHEDRAL>
0

>  <SCORE.INTRA.DIHEDRAL.0>
0

>  <SCORE.INTRA.POLAR>
0

>  <SCORE.INTRA.POLAR.0>
0

>  <SCORE.INTRA.REPUL>
0

>  <SCORE.INTRA.REPUL.0>
0

>  <SCORE.INTRA.SOLV>
0

>  <SCORE.INTRA.SOLV.lig_0>
-48.1583

>  <SCORE.INTRA.VDW>
0

>  <SCORE.INTRA.VDW.0>
0

>  <SCORE.INTRA.norm>
0

>  <SCORE.RESTR>
0

>  <SCORE.RESTR.CAVITY>
0

>  <SCORE.RESTR.norm>
0

>  <SCORE.SYSTEM>
0

>  <SCORE.SYSTEM.CONST>
0

>  <SCORE.SYSTEM.DIHEDRAL>
0

>  <SCORE.SYSTEM.SOLV>
0

>  <SCORE.SYSTEM.norm>
0

>  <SCORE.heavy>
12

>  <SCORE.norm>
-1.24342

>  <RMSD>
3.049

$$$$
ligand
 OpenBabel02271912143D
libRbt.so/2013.1/901 2013/11/27
 12 13  0  0  0  0  0  0  0  0999 V2000
    4.6799   15.4770    3.9659 C   0  0  0  0  0  0  0  0  0  0  0  0
    6.0384   17.0789    2.9543 C   0  0  0  0  0  0  0  0  0  0  0  0
    3.9938   14.3414    3.8729 N   0  0  0  0  0  0  0  0  0  0  0  0
    6.6792   17.5919    1.8982 N   0  0  0  0  0  0  0  0  0  0  0  0
    5.3212   15.9502    2.8750 N   0  0  0  0  0  0  0  0  0  0  0  0
    4.7473   16.1227    5.1513 N   0  0  0  0  0  0  0  0  0  0  0  0
    6.9050   19.6373    5.4784 N   0  0  0  0  0  0  0  0  0  0  0  0
    6.2303   19.1125    6.5915 C   0  0  0  0  0  0  0  0  0  0  0  0
    5.4871   17.9154    6.4682 N   0  0  0  0  0  0  0  0  0  0  0  0
    5.4515   17.2749    5.2797 C   0  0  0  0  0  0  0  0  0  0  0  0
    6.1278   17.7786    4.1640 C   0  0  0  0  0  0  0  0  0  0  0  0
    6.8611   18.9611    4.2431 C   0  0  0  0  0  0  0  0  0  0  0  0
  1  3  1  0  0  0  0
  1  5  1  0  0  0  0
  1  6  2  0  0  0  0
  2  5  2  0  0  0  0
  2 11  1  0  0  0  0
  2  4  1  0  0  0  0
  6 10  1  0  0  0  0
  7  8  2  0  0  0  0
  7 12  1  0  0  0  0
  8  9  1  0  0  0  0
  9 10  2  0  0  0  0
 10 11  1  0  0  0  0
 11 12  2  0  0  0  0
M  END
>  <CHROM.1>
5.69580062,17.24379746,4.40258236,2.27025708,-0.95092698,-2.01399316

>  <Name>
ligand

>  <RI>
0

>  <Rbt.Current_Directory>
/home/itssahil/PROJECTS/Mol_Feturizer/Test_systems_manuscript/rnas/4lx5

>  <Rbt.Executable>
rbdock ($Id: //depot/dev/client3/rdock/2013.1/src/exe/rbdock.cxx#4 $)

>  <Rbt.Library>
libRbt.so (2013.1, Build901 2013/11/27)

>  <Rbt.Parameter_File>
/export/apps/rDock/src/rDock_2013.1_src/data/scripts/dock_solv.prm

>  <Rbt.Receptor>
prm/pocket_docking_6.prm

>  <SCORE>
-15.0808

>  <SCORE.INTER>
-15.0808

>  <SCORE.INTER.CONST>
1

>  <SCORE.INTER.POLAR>
0

>  <SCORE.INTER.ROT>
0

>  <SCORE.INTER.SOLV>
15.5354

>  <SCORE.INTER.VDW>
-18.8323

>  <SCORE.INTER.norm>
-1.25673

>  <SCORE.INTRA>
0

>  <SCORE.INTRA.DIHEDRAL>
0

>  <SCORE.INTRA.DIHEDRAL.0>
0

>  <SCORE.INTRA.POLAR>
0

>  <SCORE.INTRA.POLAR.0>
0

>  <SCORE.INTRA.REPUL>
0

>  <SCORE.INTRA.REPUL.0>
0

>  <SCORE.INTRA.SOLV>
0

>  <SCORE.INTRA.SOLV.lig_0>
-48.1583

>  <SCORE.INTRA.VDW>
0

>  <SCORE.INTRA.VDW.0>
0

>  <SCORE.INTRA.norm>
0

>  <SCORE.RESTR>
0

>  <SCORE.RESTR.CAVITY>
0

>  <SCORE.RESTR.norm>
0

>  <SCORE.SYSTEM>
0

>  <SCORE.SYSTEM.CONST>
0

>  <SCORE.SYSTEM.DIHEDRAL>
0

>  <SCORE.SYSTEM.SOLV>
0

>  <SCORE.SYSTEM.norm>
0

>  <SCORE.heavy>
12

>  <SCORE.norm>
-1.25673

>  <RMSD>
3.049

$$$$
ligand
 OpenBabel02271912143D
libRbt.so/2013.1/901 2013/11/27
 12 13  0  0  0  0  0  0  0  0999 V2000
    4.6863   15.4603    3.9674 C   0  0  0  0  0  0  0  0  0  0  0  0
    6.0405   17.0637    2.9525 C   0  0  0  0  0  0  0  0  0  0  0  0
    4.0061   14.3209    3.8778 N   0  0  0  0  0  0  0  0  0  0  0  0
    6.6824   17.5746    1.8961 N   0  0  0  0  0  0  0  0  0  0  0  0
    5.3290   15.9312    2.8764 N   0  0  0  0  0  0  0  0  0  0  0  0
    4.7466   16.1121    5.1499 N   0  0  0  0  0  0  0  0  0  0  0  0
    6.8863   19.6386    5.4669 N   0  0  0  0  0  0  0  0  0  0  0  0
    6.2104   19.1160    6.5803 C   0  0  0  0  0  0  0  0  0  0  0  0
    5.4735   17.9147    6.4604 N   0  0  0  0  0  0  0  0  0  0  0  0
    5.4449   17.2682    5.2750 C   0  0  0  0  0  0  0  0  0  0  0  0
    6.1224   17.7698    4.1590 C   0  0  0  0  0  0  0  0  0  0  0  0
    6.8498   18.9561    4.2348 C   0  0  0  0  0  0  0  0  0  0  0  0
  1  3  1  0  0  0  0
  1  5  1  0  0  0  0
  1  6  2  0  0  0  0
  2  5  2  0  0  0  0
  2 11  1  0  0  0  0
  2  4  1  0  0  0  0
  6 10  1  0  0  0  0
  7  8  2  0  0  0  0
  7 12  1  0  0  0  0
  8  9  1  0  0  0  0
  9 10  2  0  0  0  0
 10 11  1  0  0  0  0
 11 12  2  0  0  0  0
M  END
>  <CHROM.1>
5.69226714,17.23404458,4.39881936,2.26146390,-0.95382952,-2.02605574

>  <Name>
ligand

>  <RI>
0

>  <Rbt.Current_Directory>
/home/itssahil/PROJECTS/Mol_Feturizer/Test_systems_manuscript/rnas/4lx5

>  <Rbt.Executable>
rbdock ($Id: //depot/dev/client3/rdock/2013.1/src/exe/rbdock.cxx#4 $)

>  <Rbt.Library>
libRbt.so (2013.1, Build901 2013/11/27)

>  <Rbt.Parameter_File>
/export/apps/rDock/src/rDock_2013.1_src/data/scripts/dock_solv.prm

>  <Rbt.Receptor>
prm/pocket_docking_6.prm

>  <SCORE>
-15.0437

>  <SCORE.INTER>
-15.0437

>  <SCORE.INTER.CONST>
1

>  <SCORE.INTER.POLAR>
0

>  <SCORE.INTER.ROT>
0

>  <SCORE.INTER.SOLV>
15.6181

>  <SCORE.INTER.VDW>
-18.8352

>  <SCORE.INTER.norm>
-1.25365

>  <SCORE.INTRA>
0

>  <SCORE.INTRA.DIHEDRAL>
0

>  <SCORE.INTRA.DIHEDRAL.0>
0

>  <SCORE.INTRA.POLAR>
0

>  <SCORE.INTRA.POLAR.0>
0

>  <SCORE.INTRA.REPUL>
0

>  <SCORE.INTRA.REPUL.0>
0

>  <SCORE.INTRA.SOLV>
0

>  <SCORE.INTRA.SOLV.lig_0>
-48.1583

>  <SCORE.INTRA.VDW>
0

>  <SCORE.INTRA.VDW.0>
0

>  <SCORE.INTRA.norm>
0

>  <SCORE.RESTR>
0

>  <SCORE.RESTR.CAVITY>
0

>  <SCORE.RESTR.norm>
0

>  <SCORE.SYSTEM>
0

>  <SCORE.SYSTEM.CONST>
0

>  <SCORE.SYSTEM.DIHEDRAL>
0

>  <SCORE.SYSTEM.SOLV>
0

>  <SCORE.SYSTEM.norm>
0

>  <SCORE.heavy>
12

>  <SCORE.norm>
-1.25365

>  <RMSD>
3.049

$$$$
ligand
 OpenBabel02271912143D
libRbt.so/2013.1/901 2013/11/27
 12 13  0  0  0  0  0  0  0  0999 V2000
    4.6796   15.4783    3.9640 C   0  0  0  0  0  0  0  0  0  0  0  0
    6.0414   17.0818    2.9594 C   0  0  0  0  0  0  0  0  0  0  0  0
    3.9947   14.3423    3.8673 N   0  0  0  0  0  0  0  0  0  0  0  0
    6.6864   17.5960    1.9065 N   0  0  0  0  0  0  0  0  0  0  0  0
    5.3253   15.9527    2.8762 N   0  0  0  0  0  0  0  0  0  0  0  0
    4.7413   16.1233    5.1501 N   0  0  0  0  0  0  0  0  0  0  0  0
    6.8952   19.6391    5.4890 N   0  0  0  0  0  0  0  0  0  0  0  0
    6.2160   19.1131    6.5988 C   0  0  0  0  0  0  0  0  0  0  0  0
    5.4742   17.9156    6.4714 N   0  0  0  0  0  0  0  0  0  0  0  0
    5.4442   17.2758    5.2824 C   0  0  0  0  0  0  0  0  0  0  0  0
    6.1250   17.7808    4.1699 C   0  0  0  0  0  0  0  0  0  0  0  0
    6.8572   18.9637    4.2531 C   0  0  0  0  0  0  0  0  0  0  0  0
  1  3  1  0  0  0  0
  1  5  1  0  0  0  0
  1  6  2  0  0  0  0
  2  5  2  0  0  0  0
  2 11  1  0  0  0  0
  2  4  1  0  0  0  0
  6 10  1  0  0  0  0
  7  8  2  0  0  0  0
  7 12  1  0  0  0  0
  8  9  1  0  0  0  0
  9 10  2  0  0  0  0
 10 11  1  0  0  0  0
 11 12  2  0  0  0  0
M  END
>  <CHROM.1>
5.69235252,17.24550969,4.40629136,2.26297680,-0.94966308,-2.01923957

>  <Name>
ligand

>  <RI>
0

>  <Rbt.Current_Directory>
/home/itssahil/PROJECTS/Mol_Feturizer/Test_systems_manuscript/rnas/4lx5

>  <Rbt.Executable>
rbdock ($Id: //depot/dev/client3/rdock/2013.1/src/exe/rbdock.cxx#4 $)

>  <Rbt.Library>
libRbt.so (2013.1, Build901 2013/11/27)

>  <Rbt.Parameter_File>
/export/apps/rDock/src/rDock_2013.1_src/data/scripts/dock_solv.prm

>  <Rbt.Receptor>
prm/pocket_docking_6.prm

>  <SCORE>
-15.079

>  <SCORE.INTER>
-15.079

>  <SCORE.INTER.CONST>
1

>  <SCORE.INTER.POLAR>
0

>  <SCORE.INTER.ROT>
0

>  <SCORE.INTER.SOLV>
15.538

>  <SCORE.INTER.VDW>
-18.832

>  <SCORE.INTER.norm>
-1.25658

>  <SCORE.INTRA>
0

>  <SCORE.INTRA.DIHEDRAL>
0

>  <SCORE.INTRA.DIHEDRAL.0>
0

>  <SCORE.INTRA.POLAR>
0

>  <SCORE.INTRA.POLAR.0>
0

>  <SCORE.INTRA.REPUL>
0

>  <SCORE.INTRA.REPUL.0>
0

>  <SCORE.INTRA.SOLV>
0

>  <SCORE.INTRA.SOLV.lig_0>
-48.1583

>  <SCORE.INTRA.VDW>
0

>  <SCORE.INTRA.VDW.0>
0

>  <SCORE.INTRA.norm>
0

>  <SCORE.RESTR>
0

>  <SCORE.RESTR.CAVITY>
0

>  <SCORE.RESTR.norm>
0

>  <SCORE.SYSTEM>
0

>  <SCORE.SYSTEM.CONST>
0

>  <SCORE.SYSTEM.DIHEDRAL>
0

>  <SCORE.SYSTEM.SOLV>
0

>  <SCORE.SYSTEM.norm>
0

>  <SCORE.heavy>
12

>  <SCORE.norm>
-1.25658

>  <RMSD>
3.049

$$$$
ligand
 OpenBabel02271912143D
libRbt.so/2013.1/901 2013/11/27
 12 13  0  0  0  0  0  0  0  0999 V2000
    4.6844   15.4614    3.9670 C   0  0  0  0  0  0  0  0  0  0  0  0
    6.0409   17.0621    2.9508 C   0  0  0  0  0  0  0  0  0  0  0  0
    4.0021   14.3232    3.8781 N   0  0  0  0  0  0  0  0  0  0  0  0
    6.6831   17.5715    1.8939 N   0  0  0  0  0  0  0  0  0  0  0  0
    5.3273   15.9308    2.8754 N   0  0  0  0  0  0  0  0  0  0  0  0
    4.7464   16.1135    5.1492 N   0  0  0  0  0  0  0  0  0  0  0  0
    6.8923   19.6364    5.4639 N   0  0  0  0  0  0  0  0  0  0  0  0
    6.2161   19.1154    6.5778 C   0  0  0  0  0  0  0  0  0  0  0  0
    5.4770   17.9154    6.4587 N   0  0  0  0  0  0  0  0  0  0  0  0
    5.4467   17.2685    5.2735 C   0  0  0  0  0  0  0  0  0  0  0  0
    6.1246   17.7685    4.1570 C   0  0  0  0  0  0  0  0  0  0  0  0
    6.8541   18.9536    4.2320 C   0  0  0  0  0  0  0  0  0  0  0  0
  1  3  1  0  0  0  0
  1  5  1  0  0  0  0
  1  6  2  0  0  0  0
  2  5  2  0  0  0  0
  2 11  1  0  0  0  0
  2  4  1  0  0  0  0
  6 10  1  0  0  0  0
  7  8  2  0  0  0  0
  7 12  1  0  0  0  0
  8  9  1  0  0  0  0
  9 10  2  0  0  0  0
 10 11  1  0  0  0  0
 11 12  2  0  0  0  0
M  END
>  <CHROM.1>
5.69359669,17.23357647,4.39724008,2.26353717,-0.95247803,-2.02472057

>  <Name>
ligand

>  <RI>
0

>  <Rbt.Current_Directory>
/home/itssahil/PROJECTS/Mol_Feturizer/Test_systems_manuscript/rnas/4lx5

>  <Rbt.Executable>
rbdock ($Id: //depot/dev/client3/rdock/2013.1/src/exe/rbdock.cxx#4 $)

>  <Rbt.Library>
libRbt.so (2013.1, Build901 2013/11/27)

>  <Rbt.Parameter_File>
/export/apps/rDock/src/rDock_2013.1_src/data/scripts/dock_solv.prm

>  <Rbt.Receptor>
prm/pocket_docking_6.prm

>  <SCORE>
-15.0437

>  <SCORE.INTER>
-15.0437

>  <SCORE.INTER.CONST>
1

>  <SCORE.INTER.POLAR>
0

>  <SCORE.INTER.ROT>
0

>  <SCORE.INTER.SOLV>
15.6002

>  <SCORE.INTER.VDW>
-18.8292

>  <SCORE.INTER.norm>
-1.25364

>  <SCORE.INTRA>
0

>  <SCORE.INTRA.DIHEDRAL>
0

>  <SCORE.INTRA.DIHEDRAL.0>
0

>  <SCORE.INTRA.POLAR>
0

>  <SCORE.INTRA.POLAR.0>
0

>  <SCORE.INTRA.REPUL>
0

>  <SCORE.INTRA.REPUL.0>
0

>  <SCORE.INTRA.SOLV>
0

>  <SCORE.INTRA.SOLV.lig_0>
-48.1583

>  <SCORE.INTRA.VDW>
0

>  <SCORE.INTRA.VDW.0>
0

>  <SCORE.INTRA.norm>
0

>  <SCORE.RESTR>
0

>  <SCORE.RESTR.CAVITY>
0

>  <SCORE.RESTR.norm>
0

>  <SCORE.SYSTEM>
0

>  <SCORE.SYSTEM.CONST>
0

>  <SCORE.SYSTEM.DIHEDRAL>
0

>  <SCORE.SYSTEM.SOLV>
0

>  <SCORE.SYSTEM.norm>
0

>  <SCORE.heavy>
12

>  <SCORE.norm>
-1.25364

>  <RMSD>
3.049

$$$$
ligand
 OpenBabel02271912143D
libRbt.so/2013.1/901 2013/11/27
 12 13  0  0  0  0  0  0  0  0999 V2000
    4.7109   15.4737    3.9738 C   0  0  0  0  0  0  0  0  0  0  0  0
    6.0660   17.0825    2.9687 C   0  0  0  0  0  0  0  0  0  0  0  0
    4.0298   14.3355    3.8772 N   0  0  0  0  0  0  0  0  0  0  0  0
    6.7079   17.5996    1.9153 N   0  0  0  0  0  0  0  0  0  0  0  0
    5.3536   15.9511    2.8856 N   0  0  0  0  0  0  0  0  0  0  0  0
    4.7720   16.1180    5.1604 N   0  0  0  0  0  0  0  0  0  0  0  0
    6.9144   19.6409    5.4990 N   0  0  0  0  0  0  0  0  0  0  0  0
    6.2385   19.1118    6.6093 C   0  0  0  0  0  0  0  0  0  0  0  0
    5.5006   17.9118    6.4821 N   0  0  0  0  0  0  0  0  0  0  0  0
    5.4712   17.2728    5.2926 C   0  0  0  0  0  0  0  0  0  0  0  0
    6.1488   17.7809    4.1796 C   0  0  0  0  0  0  0  0  0  0  0  0
    6.8771   18.9662    4.2627 C   0  0  0  0  0  0  0  0  0  0  0  0
  1  3  1  0  0  0  0
  1  5  1  0  0  0  0
  1  6  2  0  0  0  0
  2  5  2  0  0  0  0
  2 11  1  0  0  0  0
  2  4  1  0  0  0  0
  6 10  1  0  0  0  0
  7  8  2  0  0  0  0
  7 12  1  0  0  0  0
  8  9  1  0  0  0  0
  9 10  2  0  0  0  0
 10 11  1  0  0  0  0
 11 12  2  0  0  0  0
M  END
>  <CHROM.1>
5.71829266,17.24399231,4.41614329,2.26247473,-0.95327758,-2.01891286

>  <Name>
ligand

>  <RI>
0

>  <Rbt.Current_Directory>
/home/itssahil/PROJECTS/Mol_Feturizer/Test_systems_manuscript/rnas/4lx5

>  <Rbt.Executable>
rbdock ($Id: //depot/dev/client3/rdock/2013.1/src/exe/rbdock.cxx#4 $)

>  <Rbt.Library>
libRbt.so (2013.1, Build901 2013/11/27)

>  <Rbt.Parameter_File>
/export/apps/rDock/src/rDock_2013.1_src/data/scripts/dock_solv.prm

>  <Rbt.Receptor>
prm/pocket_docking_7.prm

>  <SCORE>
-15.0517

>  <SCORE.INTER>
-15.0517

>  <SCORE.INTER.CONST>
1

>  <SCORE.INTER.POLAR>
0

>  <SCORE.INTER.ROT>
0

>  <SCORE.INTER.SOLV>
15.7334

>  <SCORE.INTER.VDW>
-18.8789

>  <SCORE.INTER.norm>
-1.25431

>  <SCORE.INTRA>
0

>  <SCORE.INTRA.DIHEDRAL>
0

>  <SCORE.INTRA.DIHEDRAL.0>
0

>  <SCORE.INTRA.POLAR>
0

>  <SCORE.INTRA.POLAR.0>
0

>  <SCORE.INTRA.REPUL>
0

>  <SCORE.INTRA.REPUL.0>
0

>  <SCORE.INTRA.SOLV>
0

>  <SCORE.INTRA.SOLV.lig_0>
-48.1583

>  <SCORE.INTRA.VDW>
0

>  <SCORE.INTRA.VDW.0>
0

>  <SCORE.INTRA.norm>
0

>  <SCORE.RESTR>
0

>  <SCORE.RESTR.CAVITY>
0

>  <SCORE.RESTR.norm>
0

>  <SCORE.SYSTEM>
0

>  <SCORE.SYSTEM.CONST>
0

>  <SCORE.SYSTEM.DIHEDRAL>
0

>  <SCORE.SYSTEM.SOLV>
0

>  <SCORE.SYSTEM.norm>
0

>  <SCORE.heavy>
12

>  <SCORE.norm>
-1.25431

>  <RMSD>
3.049

$$$$
ligand
 OpenBabel02271912143D
libRbt.so/2013.1/901 2013/11/27
 12 13  0  0  0  0  0  0  0  0999 V2000
    4.6851   15.4603    3.9674 C   0  0  0  0  0  0  0  0  0  0  0  0
    6.0398   17.0632    2.9524 C   0  0  0  0  0  0  0  0  0  0  0  0
    4.0045   14.3211    3.8778 N   0  0  0  0  0  0  0  0  0  0  0  0
    6.6819   17.5738    1.8960 N   0  0  0  0  0  0  0  0  0  0  0  0
    5.3280   15.9309    2.8763 N   0  0  0  0  0  0  0  0  0  0  0  0
    4.7454   16.1122    5.1498 N   0  0  0  0  0  0  0  0  0  0  0  0
    6.8861   19.6381    5.4666 N   0  0  0  0  0  0  0  0  0  0  0  0
    6.2100   19.1158    6.5800 C   0  0  0  0  0  0  0  0  0  0  0  0
    5.4727   17.9147    6.4602 N   0  0  0  0  0  0  0  0  0  0  0  0
    5.4440   17.2681    5.2749 C   0  0  0  0  0  0  0  0  0  0  0  0
    6.1218   17.7694    4.1589 C   0  0  0  0  0  0  0  0  0  0  0  0
    6.8496   18.9555    4.2346 C   0  0  0  0  0  0  0  0  0  0  0  0
  1  3  1  0  0  0  0
  1  5  1  0  0  0  0
  1  6  2  0  0  0  0
  2  5  2  0  0  0  0
  2 11  1  0  0  0  0
  2  4  1  0  0  0  0
  6 10  1  0  0  0  0
  7  8  2  0  0  0  0
  7 12  1  0  0  0  0
  8  9  1  0  0  0  0
  9 10  2  0  0  0  0
 10 11  1  0  0  0  0
 11 12  2  0  0  0  0
M  END
>  <CHROM.1>
5.69147317,17.23377603,4.39869943,2.26153353,-0.95351291,-2.02610743

>  <Name>
ligand

>  <RI>
0

>  <Rbt.Current_Directory>
/home/itssahil/PROJECTS/Mol_Feturizer/Test_systems_manuscript/rnas/4lx5

>  <Rbt.Executable>
rbdock ($Id: //depot/dev/client3/rdock/2013.1/src/exe/rbdock.cxx#4 $)

>  <Rbt.Library>
libRbt.so (2013.1, Build901 2013/11/27)

>  <Rbt.Parameter_File>
/export/apps/rDock/src/rDock_2013.1_src/data/scripts/dock_solv.prm

>  <Rbt.Receptor>
prm/pocket_docking_7.prm

>  <SCORE>
-15.0441

>  <SCORE.INTER>
-15.0441

>  <SCORE.INTER.CONST>
1

>  <SCORE.INTER.POLAR>
0

>  <SCORE.INTER.ROT>
0

>  <SCORE.INTER.SOLV>
15.6095

>  <SCORE.INTER.VDW>
-18.8326

>  <SCORE.INTER.norm>
-1.25367

>  <SCORE.INTRA>
0

>  <SCORE.INTRA.DIHEDRAL>
0

>  <SCORE.INTRA.DIHEDRAL.0>
0

>  <SCORE.INTRA.POLAR>
0

>  <SCORE.INTRA.POLAR.0>
0

>  <SCORE.INTRA.REPUL>
0

>  <SCORE.INTRA.REPUL.0>
0

>  <SCORE.INTRA.SOLV>
0

>  <SCORE.INTRA.SOLV.lig_0>
-48.1583

>  <SCORE.INTRA.VDW>
0

>  <SCORE.INTRA.VDW.0>
0

>  <SCORE.INTRA.norm>
0

>  <SCORE.RESTR>
0

>  <SCORE.RESTR.CAVITY>
0

>  <SCORE.RESTR.norm>
0

>  <SCORE.SYSTEM>
0

>  <SCORE.SYSTEM.CONST>
0

>  <SCORE.SYSTEM.DIHEDRAL>
0

>  <SCORE.SYSTEM.SOLV>
0

>  <SCORE.SYSTEM.norm>
0

>  <SCORE.heavy>
12

>  <SCORE.norm>
-1.25367

>  <RMSD>
3.049

$$$$
ligand
 OpenBabel02271912143D
libRbt.so/2013.1/901 2013/11/27
 12 13  0  0  0  0  0  0  0  0999 V2000
    4.6828   15.4569    3.9661 C   0  0  0  0  0  0  0  0  0  0  0  0
    6.0423   17.0543    2.9487 C   0  0  0  0  0  0  0  0  0  0  0  0
    4.0002   14.3188    3.8786 N   0  0  0  0  0  0  0  0  0  0  0  0
    6.6869   17.5608    1.8918 N   0  0  0  0  0  0  0  0  0  0  0  0
    5.3283   15.9232    2.8747 N   0  0  0  0  0  0  0  0  0  0  0  0
    4.7427   16.1119    5.1467 N   0  0  0  0  0  0  0  0  0  0  0  0
    6.8899   19.6345    5.4571 N   0  0  0  0  0  0  0  0  0  0  0  0
    6.2111   19.1166    6.5709 C   0  0  0  0  0  0  0  0  0  0  0  0
    5.4716   17.9167    6.4533 N   0  0  0  0  0  0  0  0  0  0  0  0
    5.4434   17.2668    5.2697 C   0  0  0  0  0  0  0  0  0  0  0  0
    6.1239   17.7637    4.1533 C   0  0  0  0  0  0  0  0  0  0  0  0
    6.8538   18.9486    4.2269 C   0  0  0  0  0  0  0  0  0  0  0  0
  1  3  1  0  0  0  0
  1  5  1  0  0  0  0
  1  6  2  0  0  0  0
  2  5  2  0  0  0  0
  2 11  1  0  0  0  0
  2  4  1  0  0  0  0
  6 10  1  0  0  0  0
  7  8  2  0  0  0  0
  7 12  1  0  0  0  0
  8  9  1  0  0  0  0
  9 10  2  0  0  0  0
 10 11  1  0  0  0  0
 11 12  2  0  0  0  0
M  END
>  <CHROM.1>
5.69210013,17.22958961,4.39397650,2.26072549,-0.95109591,-2.02952060

>  <Name>
ligand

>  <RI>
0

>  <Rbt.Current_Directory>
/home/itssahil/PROJECTS/Mol_Feturizer/Test_systems_manuscript/rnas/4lx5

>  <Rbt.Executable>
rbdock ($Id: //depot/dev/client3/rdock/2013.1/src/exe/rbdock.cxx#4 $)

>  <Rbt.Library>
libRbt.so (2013.1, Build901 2013/11/27)

>  <Rbt.Parameter_File>
/export/apps/rDock/src/rDock_2013.1_src/data/scripts/dock_solv.prm

>  <Rbt.Receptor>
prm/pocket_docking_7.prm

>  <SCORE>
-15.0425

>  <SCORE.INTER>
-15.0425

>  <SCORE.INTER.CONST>
1

>  <SCORE.INTER.POLAR>
0

>  <SCORE.INTER.ROT>
0

>  <SCORE.INTER.SOLV>
15.601

>  <SCORE.INTER.VDW>
-18.8287

>  <SCORE.INTER.norm>
-1.25354

>  <SCORE.INTRA>
0

>  <SCORE.INTRA.DIHEDRAL>
0

>  <SCORE.INTRA.DIHEDRAL.0>
0

>  <SCORE.INTRA.POLAR>
0

>  <SCORE.INTRA.POLAR.0>
0

>  <SCORE.INTRA.REPUL>
0

>  <SCORE.INTRA.REPUL.0>
0

>  <SCORE.INTRA.SOLV>
0

>  <SCORE.INTRA.SOLV.lig_0>
-48.1583

>  <SCORE.INTRA.VDW>
0

>  <SCORE.INTRA.VDW.0>
0

>  <SCORE.INTRA.norm>
0

>  <SCORE.RESTR>
0

>  <SCORE.RESTR.CAVITY>
0

>  <SCORE.RESTR.norm>
0

>  <SCORE.SYSTEM>
0

>  <SCORE.SYSTEM.CONST>
0

>  <SCORE.SYSTEM.DIHEDRAL>
0

>  <SCORE.SYSTEM.SOLV>
0

>  <SCORE.SYSTEM.norm>
0

>  <SCORE.heavy>
12

>  <SCORE.norm>
-1.25354

>  <RMSD>
3.049

$$$$
ligand
 OpenBabel02271912143D
libRbt.so/2013.1/901 2013/11/27
 12 13  0  0  0  0  0  0  0  0999 V2000
    4.6736   15.4831    3.9668 C   0  0  0  0  0  0  0  0  0  0  0  0
    6.0331   17.0832    2.9538 C   0  0  0  0  0  0  0  0  0  0  0  0
    3.9845   14.3494    3.8740 N   0  0  0  0  0  0  0  0  0  0  0  0
    6.6722   17.5963    1.8967 N   0  0  0  0  0  0  0  0  0  0  0  0
    5.3129   15.9564    2.8748 N   0  0  0  0  0  0  0  0  0  0  0  0
    4.7459   16.1268    5.1530 N   0  0  0  0  0  0  0  0  0  0  0  0
    6.9132   19.6355    5.4795 N   0  0  0  0  0  0  0  0  0  0  0  0
    6.2405   19.1106    6.5937 C   0  0  0  0  0  0  0  0  0  0  0  0
    5.4940   17.9155    6.4706 N   0  0  0  0  0  0  0  0  0  0  0  0
    5.4534   17.2770    5.2813 C   0  0  0  0  0  0  0  0  0  0  0  0
    6.1277   17.7808    4.1643 C   0  0  0  0  0  0  0  0  0  0  0  0
    6.8642   18.9613    4.2433 C   0  0  0  0  0  0  0  0  0  0  0  0
  1  3  1  0  0  0  0
  1  5  1  0  0  0  0
  1  6  2  0  0  0  0
  2  5  2  0  0  0  0
  2 11  1  0  0  0  0
  2  4  1  0  0  0  0
  6 10  1  0  0  0  0
  7  8  2  0  0  0  0
  7 12  1  0  0  0  0
  8  9  1  0  0  0  0
  9 10  2  0  0  0  0
 10 11  1  0  0  0  0
 11 12  2  0  0  0  0
M  END
>  <CHROM.1>
5.69508541,17.24669404,4.40334721,2.27653294,-0.94992146,-2.00729944

>  <Name>
ligand

>  <RI>
0

>  <Rbt.Current_Directory>
/home/itssahil/PROJECTS/Mol_Feturizer/Test_systems_manuscript/rnas/4lx5

>  <Rbt.Executable>
rbdock ($Id: //depot/dev/client3/rdock/2013.1/src/exe/rbdock.cxx#4 $)

>  <Rbt.Library>
libRbt.so (2013.1, Build901 2013/11/27)

>  <Rbt.Parameter_File>
/export/apps/rDock/src/rDock_2013.1_src/data/scripts/dock_solv.prm

>  <Rbt.Receptor>
prm/pocket_docking_8.prm

>  <SCORE>
-15.0764

>  <SCORE.INTER>
-15.0764

>  <SCORE.INTER.CONST>
1

>  <SCORE.INTER.POLAR>
0

>  <SCORE.INTER.ROT>
0

>  <SCORE.INTER.SOLV>
15.4823

>  <SCORE.INTER.VDW>
-18.8117

>  <SCORE.INTER.norm>
-1.25636

>  <SCORE.INTRA>
0

>  <SCORE.INTRA.DIHEDRAL>
0

>  <SCORE.INTRA.DIHEDRAL.0>
0

>  <SCORE.INTRA.POLAR>
0

>  <SCORE.INTRA.POLAR.0>
0

>  <SCORE.INTRA.REPUL>
0

>  <SCORE.INTRA.REPUL.0>
0

>  <SCORE.INTRA.SOLV>
0

>  <SCORE.INTRA.SOLV.lig_0>
-48.1583

>  <SCORE.INTRA.VDW>
0

>  <SCORE.INTRA.VDW.0>
0

>  <SCORE.INTRA.norm>
0

>  <SCORE.RESTR>
0

>  <SCORE.RESTR.CAVITY>
0

>  <SCORE.RESTR.norm>
0

>  <SCORE.SYSTEM>
0

>  <SCORE.SYSTEM.CONST>
0

>  <SCORE.SYSTEM.DIHEDRAL>
0

>  <SCORE.SYSTEM.SOLV>
0

>  <SCORE.SYSTEM.norm>
0

>  <SCORE.heavy>
12

>  <SCORE.norm>
-1.25636

>  <RMSD>
3.049

$$$$
ligand
 OpenBabel02271912143D
libRbt.so/2013.1/901 2013/11/27
 12 13  0  0  0  0  0  0  0  0999 V2000
    4.6891   15.4633    3.9693 C   0  0  0  0  0  0  0  0  0  0  0  0
    6.0696   17.0489    2.9618 C   0  0  0  0  0  0  0  0  0  0  0  0
    3.9982   14.3306    3.8772 N   0  0  0  0  0  0  0  0  0  0  0  0
    6.7271   17.5491    1.9099 N   0  0  0  0  0  0  0  0  0  0  0  0
    5.3473   15.9234    2.8829 N   0  0  0  0  0  0  0  0  0  0  0  0
    4.7442   16.1192    5.1497 N   0  0  0  0  0  0  0  0  0  0  0  0
    6.9164   19.6250    5.4746 N   0  0  0  0  0  0  0  0  0  0  0  0
    6.2242   19.1137    6.5832 C   0  0  0  0  0  0  0  0  0  0  0  0
    5.4762   17.9195    6.4605 N   0  0  0  0  0  0  0  0  0  0  0  0
    5.4529   17.2687    5.2774 C   0  0  0  0  0  0  0  0  0  0  0  0
    6.1466   17.7589    4.1663 C   0  0  0  0  0  0  0  0  0  0  0  0
    6.8853   18.9381    4.2448 C   0  0  0  0  0  0  0  0  0  0  0  0
  1  3  1  0  0  0  0
  1  5  1  0  0  0  0
  1  6  2  0  0  0  0
  2  5  2  0  0  0  0
  2 11  1  0  0  0  0
  2  4  1  0  0  0  0
  6 10  1  0  0  0  0
  7  8  2  0  0  0  0
  7 12  1  0  0  0  0
  8  9  1  0  0  0  0
  9 10  2  0  0  0  0
 10 11  1  0  0  0  0
 11 12  2  0  0  0  0
M  END
>  <CHROM.1>
5.70864824,17.22850677,4.40387329,2.25386604,-0.94028569,-2.03612067

>  <Name>
ligand

>  <RI>
0

>  <Rbt.Current_Directory>
/home/itssahil/PROJECTS/Mol_Feturizer/Test_systems_manuscript/rnas/4lx5

>  <Rbt.Executable>
rbdock ($Id: //depot/dev/client3/rdock/2013.1/src/exe/rbdock.cxx#4 $)

>  <Rbt.Library>
libRbt.so (2013.1, Build901 2013/11/27)

>  <Rbt.Parameter_File>
/export/apps/rDock/src/rDock_2013.1_src/data/scripts/dock_solv.prm

>  <Rbt.Receptor>
prm/blind_docking_100.prm

>  <SCORE>
-15.023

>  <SCORE.INTER>
-15.023

>  <SCORE.INTER.CONST>
1

>  <SCORE.INTER.POLAR>
0

>  <SCORE.INTER.ROT>
0

>  <SCORE.INTER.SOLV>
15.6146

>  <SCORE.INTER.VDW>
-18.8202

>  <SCORE.INTER.norm>
-1.25191

>  <SCORE.INTRA>
0

>  <SCORE.INTRA.DIHEDRAL>
0

>  <SCORE.INTRA.DIHEDRAL.0>
0

>  <SCORE.INTRA.POLAR>
0

>  <SCORE.INTRA.POLAR.0>
0

>  <SCORE.INTRA.REPUL>
0

>  <SCORE.INTRA.REPUL.0>
0

>  <SCORE.INTRA.SOLV>
0

>  <SCORE.INTRA.SOLV.lig_0>
-48.1583

>  <SCORE.INTRA.VDW>
0

>  <SCORE.INTRA.VDW.0>
0

>  <SCORE.INTRA.norm>
0

>  <SCORE.RESTR>
0

>  <SCORE.RESTR.CAVITY>
0

>  <SCORE.RESTR.norm>
0

>  <SCORE.SYSTEM>
0

>  <SCORE.SYSTEM.CONST>
0

>  <SCORE.SYSTEM.DIHEDRAL>
0

>  <SCORE.SYSTEM.SOLV>
0

>  <SCORE.SYSTEM.norm>
0

>  <SCORE.heavy>
12

>  <SCORE.norm>
-1.25191

>  <RMSD>
3.050

$$$$
ligand
 OpenBabel02271912143D
libRbt.so/2013.1/901 2013/11/27
 12 13  0  0  0  0  0  0  0  0999 V2000
    4.6775   15.4756    3.9675 C   0  0  0  0  0  0  0  0  0  0  0  0
    6.0342   17.0784    2.9549 C   0  0  0  0  0  0  0  0  0  0  0  0
    3.9922   14.3395    3.8751 N   0  0  0  0  0  0  0  0  0  0  0  0
    6.6739   17.5917    1.8983 N   0  0  0  0  0  0  0  0  0  0  0  0
    5.3177   15.9491    2.8761 N   0  0  0  0  0  0  0  0  0  0  0  0
    4.7452   16.1214    5.1528 N   0  0  0  0  0  0  0  0  0  0  0  0
    6.9006   19.6376    5.4782 N   0  0  0  0  0  0  0  0  0  0  0  0
    6.2271   19.1124    6.5918 C   0  0  0  0  0  0  0  0  0  0  0  0
    5.4847   17.9147    6.4691 N   0  0  0  0  0  0  0  0  0  0  0  0
    5.4487   17.2741    5.2807 C   0  0  0  0  0  0  0  0  0  0  0  0
    6.1238   17.7782    4.1644 C   0  0  0  0  0  0  0  0  0  0  0  0
    6.8564   18.9612    4.2430 C   0  0  0  0  0  0  0  0  0  0  0  0
  1  3  1  0  0  0  0
  1  5  1  0  0  0  0
  1  6  2  0  0  0  0
  2  5  2  0  0  0  0
  2 11  1  0  0  0  0
  2  4  1  0  0  0  0
  6 10  1  0  0  0  0
  7  8  2  0  0  0  0
  7 12  1  0  0  0  0
  8  9  1  0  0  0  0
  9 10  2  0  0  0  0
 10 11  1  0  0  0  0
 11 12  2  0  0  0  0
M  END
>  <CHROM.1>
5.69242487,17.24311921,4.40336801,2.27077954,-0.95186533,-2.01363937

>  <Name>
ligand

>  <RI>
0

>  <Rbt.Current_Directory>
/home/itssahil/PROJECTS/Mol_Feturizer/Test_systems_manuscript/rnas/4lx5

>  <Rbt.Executable>
rbdock ($Id: //depot/dev/client3/rdock/2013.1/src/exe/rbdock.cxx#4 $)

>  <Rbt.Library>
libRbt.so (2013.1, Build901 2013/11/27)

>  <Rbt.Parameter_File>
/export/apps/rDock/src/rDock_2013.1_src/data/scripts/dock_solv.prm

>  <Rbt.Receptor>
prm/blind_docking_80.prm

>  <SCORE>
-15.0822

>  <SCORE.INTER>
-15.0822

>  <SCORE.INTER.CONST>
1

>  <SCORE.INTER.POLAR>
0

>  <SCORE.INTER.ROT>
0

>  <SCORE.INTER.SOLV>
15.5258

>  <SCORE.INTER.VDW>
-18.8301

>  <SCORE.INTER.norm>
-1.25685

>  <SCORE.INTRA>
0

>  <SCORE.INTRA.DIHEDRAL>
0

>  <SCORE.INTRA.DIHEDRAL.0>
0

>  <SCORE.INTRA.POLAR>
0

>  <SCORE.INTRA.POLAR.0>
0

>  <SCORE.INTRA.REPUL>
0

>  <SCORE.INTRA.REPUL.0>
0

>  <SCORE.INTRA.SOLV>
0

>  <SCORE.INTRA.SOLV.lig_0>
-48.1583

>  <SCORE.INTRA.VDW>
0

>  <SCORE.INTRA.VDW.0>
0

>  <SCORE.INTRA.norm>
0

>  <SCORE.RESTR>
0

>  <SCORE.RESTR.CAVITY>
0

>  <SCORE.RESTR.norm>
0

>  <SCORE.SYSTEM>
0

>  <SCORE.SYSTEM.CONST>
0

>  <SCORE.SYSTEM.DIHEDRAL>
0

>  <SCORE.SYSTEM.SOLV>
0

>  <SCORE.SYSTEM.norm>
0

>  <SCORE.heavy>
12

>  <SCORE.norm>
-1.25685

>  <RMSD>
3.050

$$$$
ligand
 OpenBabel02271912143D
libRbt.so/2013.1/901 2013/11/27
 12 13  0  0  0  0  0  0  0  0999 V2000
    4.6784   15.4779    3.9687 C   0  0  0  0  0  0  0  0  0  0  0  0
    6.0352   17.0801    2.9554 C   0  0  0  0  0  0  0  0  0  0  0  0
    3.9919   14.3425    3.8765 N   0  0  0  0  0  0  0  0  0  0  0  0
    6.6739   17.5936    1.8983 N   0  0  0  0  0  0  0  0  0  0  0  0
    5.3175   15.9516    2.8768 N   0  0  0  0  0  0  0  0  0  0  0  0
    4.7484   16.1228    5.1545 N   0  0  0  0  0  0  0  0  0  0  0  0
    6.9077   19.6366    5.4794 N   0  0  0  0  0  0  0  0  0  0  0  0
    6.2353   19.1112    6.5936 C   0  0  0  0  0  0  0  0  0  0  0  0
    5.4915   17.9143    6.4710 N   0  0  0  0  0  0  0  0  0  0  0  0
    5.4532   17.2746    5.2822 C   0  0  0  0  0  0  0  0  0  0  0  0
    6.1273   17.7790    4.1653 C   0  0  0  0  0  0  0  0  0  0  0  0
    6.8611   18.9612    4.2438 C   0  0  0  0  0  0  0  0  0  0  0  0
  1  3  1  0  0  0  0
  1  5  1  0  0  0  0
  1  6  2  0  0  0  0
  2  5  2  0  0  0  0
  2 11  1  0  0  0  0
  2  4  1  0  0  0  0
  6 10  1  0  0  0  0
  7  8  2  0  0  0  0
  7 12  1  0  0  0  0
  8  9  1  0  0  0  0
  9 10  2  0  0  0  0
 10 11  1  0  0  0  0
 11 12  2  0  0  0  0
M  END
>  <CHROM.1>
5.69568469,17.24409515,4.40450837,2.27370862,-0.95159489,-2.01050265

>  <Name>
ligand

>  <RI>
0

>  <Rbt.Current_Directory>
/home/itssahil/PROJECTS/Mol_Feturizer/Test_systems_manuscript/rnas/4lx5

>  <Rbt.Executable>
rbdock ($Id: //depot/dev/client3/rdock/2013.1/src/exe/rbdock.cxx#4 $)

>  <Rbt.Library>
libRbt.so (2013.1, Build901 2013/11/27)

>  <Rbt.Parameter_File>
/export/apps/rDock/src/rDock_2013.1_src/data/scripts/dock_solv.prm

>  <Rbt.Receptor>
prm/pocket_docking_4.prm

>  <SCORE>
-15.0783

>  <SCORE.INTER>
-15.0783

>  <SCORE.INTER.CONST>
1

>  <SCORE.INTER.POLAR>
0

>  <SCORE.INTER.ROT>
0

>  <SCORE.INTER.SOLV>
15.5235

>  <SCORE.INTER.VDW>
-18.8267

>  <SCORE.INTER.norm>
-1.25653

>  <SCORE.INTRA>
0

>  <SCORE.INTRA.DIHEDRAL>
0

>  <SCORE.INTRA.DIHEDRAL.0>
0

>  <SCORE.INTRA.POLAR>
0

>  <SCORE.INTRA.POLAR.0>
0

>  <SCORE.INTRA.REPUL>
0

>  <SCORE.INTRA.REPUL.0>
0

>  <SCORE.INTRA.SOLV>
0

>  <SCORE.INTRA.SOLV.lig_0>
-48.1583

>  <SCORE.INTRA.VDW>
0

>  <SCORE.INTRA.VDW.0>
0

>  <SCORE.INTRA.norm>
0

>  <SCORE.RESTR>
0

>  <SCORE.RESTR.CAVITY>
0

>  <SCORE.RESTR.norm>
0

>  <SCORE.SYSTEM>
0

>  <SCORE.SYSTEM.CONST>
0

>  <SCORE.SYSTEM.DIHEDRAL>
0

>  <SCORE.SYSTEM.SOLV>
0

>  <SCORE.SYSTEM.norm>
0

>  <SCORE.heavy>
12

>  <SCORE.norm>
-1.25653

>  <RMSD>
3.050

$$$$
ligand
 OpenBabel02271912143D
libRbt.so/2013.1/901 2013/11/27
 12 13  0  0  0  0  0  0  0  0999 V2000
    4.6651   15.4541    3.9593 C   0  0  0  0  0  0  0  0  0  0  0  0
    6.0433   17.0444    2.9561 C   0  0  0  0  0  0  0  0  0  0  0  0
    3.9725   14.3228    3.8631 N   0  0  0  0  0  0  0  0  0  0  0  0
    6.6972   17.5503    1.9046 N   0  0  0  0  0  0  0  0  0  0  0  0
    5.3195   15.9202    2.8732 N   0  0  0  0  0  0  0  0  0  0  0  0
    4.7257   16.1026    5.1436 N   0  0  0  0  0  0  0  0  0  0  0  0
    6.9032   19.6040    5.4813 N   0  0  0  0  0  0  0  0  0  0  0  0
    6.2149   19.0866    6.5895 C   0  0  0  0  0  0  0  0  0  0  0  0
    5.4651   17.8940    6.4625 N   0  0  0  0  0  0  0  0  0  0  0  0
    5.4362   17.2505    5.2755 C   0  0  0  0  0  0  0  0  0  0  0  0
    6.1260   17.7468    4.1647 C   0  0  0  0  0  0  0  0  0  0  0  0
    6.8663   18.9247    4.2475 C   0  0  0  0  0  0  0  0  0  0  0  0
  1  3  1  0  0  0  0
  1  5  1  0  0  0  0
  1  6  2  0  0  0  0
  2  5  2  0  0  0  0
  2 11  1  0  0  0  0
  2  4  1  0  0  0  0
  6 10  1  0  0  0  0
  7  8  2  0  0  0  0
  7 12  1  0  0  0  0
  8  9  1  0  0  0  0
  9 10  2  0  0  0  0
 10 11  1  0  0  0  0
 11 12  2  0  0  0  0
M  END
>  <CHROM.1>
5.68841341,17.21544890,4.40070530,2.26083656,-0.94105194,-2.02432275

>  <Name>
ligand

>  <RI>
0

>  <Rbt.Current_Directory>
/home/itssahil/PROJECTS/Mol_Feturizer/Test_systems_manuscript/rnas/4lx5

>  <Rbt.Executable>
rbdock ($Id: //depot/dev/client3/rdock/2013.1/src/exe/rbdock.cxx#4 $)

>  <Rbt.Library>
libRbt.so (2013.1, Build901 2013/11/27)

>  <Rbt.Parameter_File>
/export/apps/rDock/src/rDock_2013.1_src/data/scripts/dock_solv.prm

>  <Rbt.Receptor>
prm/pocket_docking_6.prm

>  <SCORE>
-15.0163

>  <SCORE.INTER>
-15.0163

>  <SCORE.INTER.CONST>
1

>  <SCORE.INTER.POLAR>
0

>  <SCORE.INTER.ROT>
0

>  <SCORE.INTER.SOLV>
15.4465

>  <SCORE.INTER.VDW>
-18.7597

>  <SCORE.INTER.norm>
-1.25136

>  <SCORE.INTRA>
0

>  <SCORE.INTRA.DIHEDRAL>
0

>  <SCORE.INTRA.DIHEDRAL.0>
0

>  <SCORE.INTRA.POLAR>
0

>  <SCORE.INTRA.POLAR.0>
0

>  <SCORE.INTRA.REPUL>
0

>  <SCORE.INTRA.REPUL.0>
0

>  <SCORE.INTRA.SOLV>
0

>  <SCORE.INTRA.SOLV.lig_0>
-48.1583

>  <SCORE.INTRA.VDW>
0

>  <SCORE.INTRA.VDW.0>
0

>  <SCORE.INTRA.norm>
0

>  <SCORE.RESTR>
0

>  <SCORE.RESTR.CAVITY>
0

>  <SCORE.RESTR.norm>
0

>  <SCORE.SYSTEM>
0

>  <SCORE.SYSTEM.CONST>
0

>  <SCORE.SYSTEM.DIHEDRAL>
0

>  <SCORE.SYSTEM.SOLV>
0

>  <SCORE.SYSTEM.norm>
0

>  <SCORE.heavy>
12

>  <SCORE.norm>
-1.25136

>  <RMSD>
3.050

$$$$
ligand
 OpenBabel02271912143D
libRbt.so/2013.1/901 2013/11/27
 12 13  0  0  0  0  0  0  0  0999 V2000
    4.6647   15.4880    3.9644 C   0  0  0  0  0  0  0  0  0  0  0  0
    6.0362   17.0824    2.9586 C   0  0  0  0  0  0  0  0  0  0  0  0
    3.9721   14.3567    3.8682 N   0  0  0  0  0  0  0  0  0  0  0  0
    6.6835   17.5925    1.9051 N   0  0  0  0  0  0  0  0  0  0  0  0
    5.3124   15.9582    2.8760 N   0  0  0  0  0  0  0  0  0  0  0  0
    4.7323   16.1322    5.1506 N   0  0  0  0  0  0  0  0  0  0  0  0
    6.9103   19.6332    5.4878 N   0  0  0  0  0  0  0  0  0  0  0  0
    6.2290   19.1115    6.5983 C   0  0  0  0  0  0  0  0  0  0  0  0
    5.4789   17.9191    6.4715 N   0  0  0  0  0  0  0  0  0  0  0  0
    5.4431   17.2799    5.2824 C   0  0  0  0  0  0  0  0  0  0  0  0
    6.1260   17.7805    4.1692 C   0  0  0  0  0  0  0  0  0  0  0  0
    6.8663   18.9584    4.2518 C   0  0  0  0  0  0  0  0  0  0  0  0
  1  3  1  0  0  0  0
  1  5  1  0  0  0  0
  1  6  2  0  0  0  0
  2  5  2  0  0  0  0
  2 11  1  0  0  0  0
  2  4  1  0  0  0  0
  6 10  1  0  0  0  0
  7  8  2  0  0  0  0
  7 12  1  0  0  0  0
  8  9  1  0  0  0  0
  9 10  2  0  0  0  0
 10 11  1  0  0  0  0
 11 12  2  0  0  0  0
M  END
>  <CHROM.1>
5.69001333,17.24810240,4.40595648,2.26983373,-0.94406525,-2.01341416

>  <Name>
ligand

>  <RI>
0

>  <Rbt.Current_Directory>
/home/itssahil/PROJECTS/Mol_Feturizer/Test_systems_manuscript/rnas/4lx5

>  <Rbt.Executable>
rbdock ($Id: //depot/dev/client3/rdock/2013.1/src/exe/rbdock.cxx#4 $)

>  <Rbt.Library>
libRbt.so (2013.1, Build901 2013/11/27)

>  <Rbt.Parameter_File>
/export/apps/rDock/src/rDock_2013.1_src/data/scripts/dock_solv.prm

>  <Rbt.Receptor>
prm/pocket_docking_7.prm

>  <SCORE>
-15.0756

>  <SCORE.INTER>
-15.0756

>  <SCORE.INTER.CONST>
1

>  <SCORE.INTER.POLAR>
0

>  <SCORE.INTER.ROT>
0

>  <SCORE.INTER.SOLV>
15.4162

>  <SCORE.INTER.VDW>
-18.7891

>  <SCORE.INTER.norm>
-1.2563

>  <SCORE.INTRA>
0

>  <SCORE.INTRA.DIHEDRAL>
0

>  <SCORE.INTRA.DIHEDRAL.0>
0

>  <SCORE.INTRA.POLAR>
0

>  <SCORE.INTRA.POLAR.0>
0

>  <SCORE.INTRA.REPUL>
0

>  <SCORE.INTRA.REPUL.0>
0

>  <SCORE.INTRA.SOLV>
0

>  <SCORE.INTRA.SOLV.lig_0>
-48.1583

>  <SCORE.INTRA.VDW>
0

>  <SCORE.INTRA.VDW.0>
0

>  <SCORE.INTRA.norm>
0

>  <SCORE.RESTR>
0

>  <SCORE.RESTR.CAVITY>
0

>  <SCORE.RESTR.norm>
0

>  <SCORE.SYSTEM>
0

>  <SCORE.SYSTEM.CONST>
0

>  <SCORE.SYSTEM.DIHEDRAL>
0

>  <SCORE.SYSTEM.SOLV>
0

>  <SCORE.SYSTEM.norm>
0

>  <SCORE.heavy>
12

>  <SCORE.norm>
-1.2563

>  <RMSD>
3.050

$$$$
ligand
 OpenBabel02271912143D
libRbt.so/2013.1/901 2013/11/27
 12 13  0  0  0  0  0  0  0  0999 V2000
    4.6754   15.4793    3.9658 C   0  0  0  0  0  0  0  0  0  0  0  0
    6.0386   17.0791    2.9572 C   0  0  0  0  0  0  0  0  0  0  0  0
    3.9882   14.3445    3.8715 N   0  0  0  0  0  0  0  0  0  0  0  0
    6.6829   17.5909    1.9027 N   0  0  0  0  0  0  0  0  0  0  0  0
    5.3202   15.9512    2.8764 N   0  0  0  0  0  0  0  0  0  0  0  0
    4.7403   16.1255    5.1511 N   0  0  0  0  0  0  0  0  0  0  0  0
    6.9014   19.6376    5.4825 N   0  0  0  0  0  0  0  0  0  0  0  0
    6.2231   19.1141    6.5940 C   0  0  0  0  0  0  0  0  0  0  0  0
    5.4788   17.9178    6.4692 N   0  0  0  0  0  0  0  0  0  0  0  0
    5.4456   17.2768    5.2810 C   0  0  0  0  0  0  0  0  0  0  0  0
    6.1255   17.7793    4.1668 C   0  0  0  0  0  0  0  0  0  0  0  0
    6.8601   18.9609    4.2474 C   0  0  0  0  0  0  0  0  0  0  0  0
  1  3  1  0  0  0  0
  1  5  1  0  0  0  0
  1  6  2  0  0  0  0
  2  5  2  0  0  0  0
  2 11  1  0  0  0  0
  2  4  1  0  0  0  0
  6 10  1  0  0  0  0
  7  8  2  0  0  0  0
  7 12  1  0  0  0  0
  8  9  1  0  0  0  0
  9 10  2  0  0  0  0
 10 11  1  0  0  0  0
 11 12  2  0  0  0  0
M  END
>  <CHROM.1>
5.69224034,17.24506476,4.40448445,2.26693759,-0.94867154,-2.01713445

>  <Name>
ligand

>  <RI>
0

>  <Rbt.Current_Directory>
/home/itssahil/PROJECTS/Mol_Feturizer/Test_systems_manuscript/rnas/4lx5

>  <Rbt.Executable>
rbdock ($Id: //depot/dev/client3/rdock/2013.1/src/exe/rbdock.cxx#4 $)

>  <Rbt.Library>
libRbt.so (2013.1, Build901 2013/11/27)

>  <Rbt.Parameter_File>
/export/apps/rDock/src/rDock_2013.1_src/data/scripts/dock_solv.prm

>  <Rbt.Receptor>
prm/pocket_docking_7.prm

>  <SCORE>
-15.0788

>  <SCORE.INTER>
-15.0788

>  <SCORE.INTER.CONST>
1

>  <SCORE.INTER.POLAR>
0

>  <SCORE.INTER.ROT>
0

>  <SCORE.INTER.SOLV>
15.5067

>  <SCORE.INTER.VDW>
-18.8215

>  <SCORE.INTER.norm>
-1.25657

>  <SCORE.INTRA>
0

>  <SCORE.INTRA.DIHEDRAL>
0

>  <SCORE.INTRA.DIHEDRAL.0>
0

>  <SCORE.INTRA.POLAR>
0

>  <SCORE.INTRA.POLAR.0>
0

>  <SCORE.INTRA.REPUL>
0

>  <SCORE.INTRA.REPUL.0>
0

>  <SCORE.INTRA.SOLV>
0

>  <SCORE.INTRA.SOLV.lig_0>
-48.1583

>  <SCORE.INTRA.VDW>
0

>  <SCORE.INTRA.VDW.0>
0

>  <SCORE.INTRA.norm>
0

>  <SCORE.RESTR>
0

>  <SCORE.RESTR.CAVITY>
0

>  <SCORE.RESTR.norm>
0

>  <SCORE.SYSTEM>
0

>  <SCORE.SYSTEM.CONST>
0

>  <SCORE.SYSTEM.DIHEDRAL>
0

>  <SCORE.SYSTEM.SOLV>
0

>  <SCORE.SYSTEM.norm>
0

>  <SCORE.heavy>
12

>  <SCORE.norm>
-1.25657

>  <RMSD>
3.050

$$$$
ligand
 OpenBabel02271912143D
libRbt.so/2013.1/901 2013/11/27
 12 13  0  0  0  0  0  0  0  0999 V2000
    4.6723   15.4607    3.9664 C   0  0  0  0  0  0  0  0  0  0  0  0
    6.0387   17.0599    2.9612 C   0  0  0  0  0  0  0  0  0  0  0  0
    3.9815   14.3284    3.8692 N   0  0  0  0  0  0  0  0  0  0  0  0
    6.6828   17.5734    1.9074 N   0  0  0  0  0  0  0  0  0  0  0  0
    5.3167   15.9346    2.8776 N   0  0  0  0  0  0  0  0  0  0  0  0
    4.7413   16.1024    5.1539 N   0  0  0  0  0  0  0  0  0  0  0  0
    6.9138   19.6066    5.4943 N   0  0  0  0  0  0  0  0  0  0  0  0
    6.2358   19.0812    6.6050 C   0  0  0  0  0  0  0  0  0  0  0  0
    5.4876   17.8877    6.4772 N   0  0  0  0  0  0  0  0  0  0  0  0
    5.4504   17.2511    5.2867 C   0  0  0  0  0  0  0  0  0  0  0  0
    6.1299   17.7554    4.1732 C   0  0  0  0  0  0  0  0  0  0  0  0
    6.8683   18.9344    4.2568 C   0  0  0  0  0  0  0  0  0  0  0  0
  1  3  1  0  0  0  0
  1  5  1  0  0  0  0
  1  6  2  0  0  0  0
  2  5  2  0  0  0  0
  2 11  1  0  0  0  0
  2  4  1  0  0  0  0
  6 10  1  0  0  0  0
  7  8  2  0  0  0  0
  7 12  1  0  0  0  0
  8  9  1  0  0  0  0
  9 10  2  0  0  0  0
 10 11  1  0  0  0  0
 11 12  2  0  0  0  0
M  END
>  <CHROM.1>
5.69538591,17.22171101,4.40969041,2.27189149,-0.94660291,-2.00950530

>  <Name>
ligand

>  <RI>
0

>  <Rbt.Current_Directory>
/home/itssahil/PROJECTS/Mol_Feturizer/Test_systems_manuscript/rnas/4lx5

>  <Rbt.Executable>
rbdock ($Id: //depot/dev/client3/rdock/2013.1/src/exe/rbdock.cxx#4 $)

>  <Rbt.Library>
libRbt.so (2013.1, Build901 2013/11/27)

>  <Rbt.Parameter_File>
/export/apps/rDock/src/rDock_2013.1_src/data/scripts/dock_solv.prm

>  <Rbt.Receptor>
prm/blind_docking_60.prm

>  <SCORE>
-15.0089

>  <SCORE.INTER>
-15.0089

>  <SCORE.INTER.CONST>
1

>  <SCORE.INTER.POLAR>
0

>  <SCORE.INTER.ROT>
0

>  <SCORE.INTER.SOLV>
15.4623

>  <SCORE.INTER.VDW>
-18.76

>  <SCORE.INTER.norm>
-1.25074

>  <SCORE.INTRA>
0

>  <SCORE.INTRA.DIHEDRAL>
0

>  <SCORE.INTRA.DIHEDRAL.0>
0

>  <SCORE.INTRA.POLAR>
0

>  <SCORE.INTRA.POLAR.0>
0

>  <SCORE.INTRA.REPUL>
0

>  <SCORE.INTRA.REPUL.0>
0

>  <SCORE.INTRA.SOLV>
0

>  <SCORE.INTRA.SOLV.lig_0>
-48.1583

>  <SCORE.INTRA.VDW>
0

>  <SCORE.INTRA.VDW.0>
0

>  <SCORE.INTRA.norm>
0

>  <SCORE.RESTR>
0

>  <SCORE.RESTR.CAVITY>
0

>  <SCORE.RESTR.norm>
0

>  <SCORE.SYSTEM>
0

>  <SCORE.SYSTEM.CONST>
0

>  <SCORE.SYSTEM.DIHEDRAL>
0

>  <SCORE.SYSTEM.SOLV>
0

>  <SCORE.SYSTEM.norm>
0

>  <SCORE.heavy>
12

>  <SCORE.norm>
-1.25074

>  <RMSD>
3.051

$$$$
ligand
 OpenBabel02271912143D
libRbt.so/2013.1/901 2013/11/27
 12 13  0  0  0  0  0  0  0  0999 V2000
    4.6728   15.3980    3.9592 C   0  0  0  0  0  0  0  0  0  0  0  0
    6.0027   17.0202    2.9418 C   0  0  0  0  0  0  0  0  0  0  0  0
    4.0032   14.2524    3.8691 N   0  0  0  0  0  0  0  0  0  0  0  0
    6.6307   17.5430    1.8829 N   0  0  0  0  0  0  0  0  0  0  0  0
    5.3018   15.8810    2.8655 N   0  0  0  0  0  0  0  0  0  0  0  0
    4.7364   16.0442    5.1446 N   0  0  0  0  0  0  0  0  0  0  0  0
    6.8434   19.5902    5.4629 N   0  0  0  0  0  0  0  0  0  0  0  0
    6.1819   19.0551    6.5790 C   0  0  0  0  0  0  0  0  0  0  0  0
    5.4560   17.8471    6.4587 N   0  0  0  0  0  0  0  0  0  0  0  0
    5.4241   17.2066    5.2702 C   0  0  0  0  0  0  0  0  0  0  0  0
    6.0875   17.7207    4.1514 C   0  0  0  0  0  0  0  0  0  0  0  0
    6.8036   18.9138    4.2275 C   0  0  0  0  0  0  0  0  0  0  0  0
  1  3  1  0  0  0  0
  1  5  1  0  0  0  0
  1  6  2  0  0  0  0
  2  5  2  0  0  0  0
  2 11  1  0  0  0  0
  2  4  1  0  0  0  0
  6 10  1  0  0  0  0
  7  8  2  0  0  0  0
  7 12  1  0  0  0  0
  8  9  1  0  0  0  0
  9 10  2  0  0  0  0
 10 11  1  0  0  0  0
 11 12  2  0  0  0  0
M  END
>  <CHROM.1>
5.66460611,17.17944470,4.39183469,2.26674302,-0.96634838,-2.01646122

>  <Name>
ligand

>  <RI>
0

>  <Rbt.Current_Directory>
/home/itssahil/PROJECTS/Mol_Feturizer/Test_systems_manuscript/rnas/4lx5

>  <Rbt.Executable>
rbdock ($Id: //depot/dev/client3/rdock/2013.1/src/exe/rbdock.cxx#4 $)

>  <Rbt.Library>
libRbt.so (2013.1, Build901 2013/11/27)

>  <Rbt.Parameter_File>
/export/apps/rDock/src/rDock_2013.1_src/data/scripts/dock_solv.prm

>  <Rbt.Receptor>
prm/pocket_docking_3.prm

>  <SCORE>
-15.0352

>  <SCORE.INTER>
-15.0352

>  <SCORE.INTER.CONST>
1

>  <SCORE.INTER.POLAR>
0

>  <SCORE.INTER.ROT>
0

>  <SCORE.INTER.SOLV>
15.5487

>  <SCORE.INTER.VDW>
-18.8064

>  <SCORE.INTER.norm>
-1.25294

>  <SCORE.INTRA>
0

>  <SCORE.INTRA.DIHEDRAL>
0

>  <SCORE.INTRA.DIHEDRAL.0>
0

>  <SCORE.INTRA.POLAR>
0

>  <SCORE.INTRA.POLAR.0>
0

>  <SCORE.INTRA.REPUL>
0

>  <SCORE.INTRA.REPUL.0>
0

>  <SCORE.INTRA.SOLV>
0

>  <SCORE.INTRA.SOLV.lig_0>
-48.1583

>  <SCORE.INTRA.VDW>
0

>  <SCORE.INTRA.VDW.0>
0

>  <SCORE.INTRA.norm>
0

>  <SCORE.RESTR>
0

>  <SCORE.RESTR.CAVITY>
0

>  <SCORE.RESTR.norm>
0

>  <SCORE.SYSTEM>
0

>  <SCORE.SYSTEM.CONST>
0

>  <SCORE.SYSTEM.DIHEDRAL>
0

>  <SCORE.SYSTEM.SOLV>
0

>  <SCORE.SYSTEM.norm>
0

>  <SCORE.heavy>
12

>  <SCORE.norm>
-1.25294

>  <RMSD>
3.051

$$$$
ligand
 OpenBabel02271912143D
libRbt.so/2013.1/901 2013/11/27
 12 13  0  0  0  0  0  0  0  0999 V2000
    4.6837   15.4561    3.9711 C   0  0  0  0  0  0  0  0  0  0  0  0
    6.0417   17.0559    2.9555 C   0  0  0  0  0  0  0  0  0  0  0  0
    4.0028   14.3171    3.8827 N   0  0  0  0  0  0  0  0  0  0  0  0
    6.6865   17.5637    1.8994 N   0  0  0  0  0  0  0  0  0  0  0  0
    5.3294   15.9238    2.8805 N   0  0  0  0  0  0  0  0  0  0  0  0
    4.7416   16.1108    5.1521 N   0  0  0  0  0  0  0  0  0  0  0  0
    6.8833   19.6364    5.4656 N   0  0  0  0  0  0  0  0  0  0  0  0
    6.2043   19.1172    6.5786 C   0  0  0  0  0  0  0  0  0  0  0  0
    5.4667   17.9161    6.4599 N   0  0  0  0  0  0  0  0  0  0  0  0
    5.4405   17.2667    5.2761 C   0  0  0  0  0  0  0  0  0  0  0  0
    6.1212   17.7649    4.1605 C   0  0  0  0  0  0  0  0  0  0  0  0
    6.8494   18.9509    4.2351 C   0  0  0  0  0  0  0  0  0  0  0  0
  1  3  1  0  0  0  0
  1  5  1  0  0  0  0
  1  6  2  0  0  0  0
  2  5  2  0  0  0  0
  2 11  1  0  0  0  0
  2  4  1  0  0  0  0
  6 10  1  0  0  0  0
  7  8  2  0  0  0  0
  7 12  1  0  0  0  0
  8  9  1  0  0  0  0
  9 10  2  0  0  0  0
 10 11  1  0  0  0  0
 11 12  2  0  0  0  0
M  END
>  <CHROM.1>
5.68999136,17.23015096,4.40057313,2.25825592,-0.95201910,-2.03117095

>  <Name>
ligand

>  <RI>
0

>  <Rbt.Current_Directory>
/home/itssahil/PROJECTS/Mol_Feturizer/Test_systems_manuscript/rnas/4lx5

>  <Rbt.Executable>
rbdock ($Id: //depot/dev/client3/rdock/2013.1/src/exe/rbdock.cxx#4 $)

>  <Rbt.Library>
libRbt.so (2013.1, Build901 2013/11/27)

>  <Rbt.Parameter_File>
/export/apps/rDock/src/rDock_2013.1_src/data/scripts/dock_solv.prm

>  <Rbt.Receptor>
prm/pocket_docking_3.prm

>  <SCORE>
-15.0396

>  <SCORE.INTER>
-15.0396

>  <SCORE.INTER.CONST>
1

>  <SCORE.INTER.POLAR>
0

>  <SCORE.INTER.ROT>
0

>  <SCORE.INTER.SOLV>
15.6098

>  <SCORE.INTER.VDW>
-18.8297

>  <SCORE.INTER.norm>
-1.2533

>  <SCORE.INTRA>
0

>  <SCORE.INTRA.DIHEDRAL>
0

>  <SCORE.INTRA.DIHEDRAL.0>
0

>  <SCORE.INTRA.POLAR>
0

>  <SCORE.INTRA.POLAR.0>
0

>  <SCORE.INTRA.REPUL>
0

>  <SCORE.INTRA.REPUL.0>
0

>  <SCORE.INTRA.SOLV>
0

>  <SCORE.INTRA.SOLV.lig_0>
-48.1583

>  <SCORE.INTRA.VDW>
0

>  <SCORE.INTRA.VDW.0>
0

>  <SCORE.INTRA.norm>
0

>  <SCORE.RESTR>
0

>  <SCORE.RESTR.CAVITY>
0

>  <SCORE.RESTR.norm>
0

>  <SCORE.SYSTEM>
0

>  <SCORE.SYSTEM.CONST>
0

>  <SCORE.SYSTEM.DIHEDRAL>
0

>  <SCORE.SYSTEM.SOLV>
0

>  <SCORE.SYSTEM.norm>
0

>  <SCORE.heavy>
12

>  <SCORE.norm>
-1.2533

>  <RMSD>
3.051

$$$$
ligand
 OpenBabel02271912143D
libRbt.so/2013.1/901 2013/11/27
 12 13  0  0  0  0  0  0  0  0999 V2000
    4.6902   15.4489    3.9757 C   0  0  0  0  0  0  0  0  0  0  0  0
    6.0460   17.0480    2.9561 C   0  0  0  0  0  0  0  0  0  0  0  0
    4.0103   14.3091    3.8898 N   0  0  0  0  0  0  0  0  0  0  0  0
    6.6898   17.5543    1.8987 N   0  0  0  0  0  0  0  0  0  0  0  0
    5.3348   15.9151    2.8837 N   0  0  0  0  0  0  0  0  0  0  0  0
    4.7481   16.1060    5.1553 N   0  0  0  0  0  0  0  0  0  0  0  0
    6.8865   19.6343    5.4606 N   0  0  0  0  0  0  0  0  0  0  0  0
    6.2087   19.1166    6.5750 C   0  0  0  0  0  0  0  0  0  0  0  0
    5.4721   17.9146    6.4591 N   0  0  0  0  0  0  0  0  0  0  0  0
    5.4459   17.2629    5.2766 C   0  0  0  0  0  0  0  0  0  0  0  0
    6.1255   17.7595    4.1596 C   0  0  0  0  0  0  0  0  0  0  0  0
    6.8526   18.9463    4.2315 C   0  0  0  0  0  0  0  0  0  0  0  0
  1  3  1  0  0  0  0
  1  5  1  0  0  0  0
  1  6  2  0  0  0  0
  2  5  2  0  0  0  0
  2 11  1  0  0  0  0
  2  4  1  0  0  0  0
  6 10  1  0  0  0  0
  7  8  2  0  0  0  0
  7 12  1  0  0  0  0
  8  9  1  0  0  0  0
  9 10  2  0  0  0  0
 10 11  1  0  0  0  0
 11 12  2  0  0  0  0
M  END
>  <CHROM.1>
5.69496359,17.22478904,4.40102448,2.25839409,-0.95314193,-2.03303932

>  <Name>
ligand

>  <RI>
0

>  <Rbt.Current_Directory>
/home/itssahil/PROJECTS/Mol_Feturizer/Test_systems_manuscript/rnas/4lx5

>  <Rbt.Executable>
rbdock ($Id: //depot/dev/client3/rdock/2013.1/src/exe/rbdock.cxx#4 $)

>  <Rbt.Library>
libRbt.so (2013.1, Build901 2013/11/27)

>  <Rbt.Parameter_File>
/export/apps/rDock/src/rDock_2013.1_src/data/scripts/dock_solv.prm

>  <Rbt.Receptor>
prm/pocket_docking_4.prm

>  <SCORE>
-15.0383

>  <SCORE.INTER>
-15.0383

>  <SCORE.INTER.CONST>
1

>  <SCORE.INTER.POLAR>
0

>  <SCORE.INTER.ROT>
0

>  <SCORE.INTER.SOLV>
15.6591

>  <SCORE.INTER.VDW>
-18.8453

>  <SCORE.INTER.norm>
-1.25319

>  <SCORE.INTRA>
0

>  <SCORE.INTRA.DIHEDRAL>
0

>  <SCORE.INTRA.DIHEDRAL.0>
0

>  <SCORE.INTRA.POLAR>
0

>  <SCORE.INTRA.POLAR.0>
0

>  <SCORE.INTRA.REPUL>
0

>  <SCORE.INTRA.REPUL.0>
0

>  <SCORE.INTRA.SOLV>
0

>  <SCORE.INTRA.SOLV.lig_0>
-48.1583

>  <SCORE.INTRA.VDW>
0

>  <SCORE.INTRA.VDW.0>
0

>  <SCORE.INTRA.norm>
0

>  <SCORE.RESTR>
0

>  <SCORE.RESTR.CAVITY>
0

>  <SCORE.RESTR.norm>
0

>  <SCORE.SYSTEM>
0

>  <SCORE.SYSTEM.CONST>
0

>  <SCORE.SYSTEM.DIHEDRAL>
0

>  <SCORE.SYSTEM.SOLV>
0

>  <SCORE.SYSTEM.norm>
0

>  <SCORE.heavy>
12

>  <SCORE.norm>
-1.25319

>  <RMSD>
3.051

$$$$
ligand
 OpenBabel02271912143D
libRbt.so/2013.1/901 2013/11/27
 12 13  0  0  0  0  0  0  0  0999 V2000
    4.6650   15.4511    3.9587 C   0  0  0  0  0  0  0  0  0  0  0  0
    6.0440   17.0454    2.9630 C   0  0  0  0  0  0  0  0  0  0  0  0
    3.9751   14.3184    3.8582 N   0  0  0  0  0  0  0  0  0  0  0  0
    6.7011   17.5539    1.9149 N   0  0  0  0  0  0  0  0  0  0  0  0
    5.3228   15.9198    2.8758 N   0  0  0  0  0  0  0  0  0  0  0  0
    4.7194   16.0982    5.1440 N   0  0  0  0  0  0  0  0  0  0  0  0
    6.8883   19.6036    5.4948 N   0  0  0  0  0  0  0  0  0  0  0  0
    6.1965   19.0835    6.5996 C   0  0  0  0  0  0  0  0  0  0  0  0
    5.4497   17.8895    6.4681 N   0  0  0  0  0  0  0  0  0  0  0  0
    5.4270   17.2474    5.2802 C   0  0  0  0  0  0  0  0  0  0  0  0
    6.1204   17.7465    4.1728 C   0  0  0  0  0  0  0  0  0  0  0  0
    6.8579   18.9258    4.2600 C   0  0  0  0  0  0  0  0  0  0  0  0
  1  3  1  0  0  0  0
  1  5  1  0  0  0  0
  1  6  2  0  0  0  0
  2  5  2  0  0  0  0
  2 11  1  0  0  0  0
  2  4  1  0  0  0  0
  6 10  1  0  0  0  0
  7  8  2  0  0  0  0
  7 12  1  0  0  0  0
  8  9  1  0  0  0  0
  9 10  2  0  0  0  0
 10 11  1  0  0  0  0
 11 12  2  0  0  0  0
M  END
>  <CHROM.1>
5.68286738,17.21394832,4.40638000,2.25307050,-0.94108951,-2.02939057

>  <Name>
ligand

>  <RI>
0

>  <Rbt.Current_Directory>
/home/itssahil/PROJECTS/Mol_Feturizer/Test_systems_manuscript/rnas/4lx5

>  <Rbt.Executable>
rbdock ($Id: //depot/dev/client3/rdock/2013.1/src/exe/rbdock.cxx#4 $)

>  <Rbt.Library>
libRbt.so (2013.1, Build901 2013/11/27)

>  <Rbt.Parameter_File>
/export/apps/rDock/src/rDock_2013.1_src/data/scripts/dock_solv.prm

>  <Rbt.Receptor>
prm/pocket_docking_5.prm

>  <SCORE>
-15.0123

>  <SCORE.INTER>
-15.0123

>  <SCORE.INTER.CONST>
1

>  <SCORE.INTER.POLAR>
0

>  <SCORE.INTER.ROT>
0

>  <SCORE.INTER.SOLV>
15.4548

>  <SCORE.INTER.VDW>
-18.7598

>  <SCORE.INTER.norm>
-1.25102

>  <SCORE.INTRA>
0

>  <SCORE.INTRA.DIHEDRAL>
0

>  <SCORE.INTRA.DIHEDRAL.0>
0

>  <SCORE.INTRA.POLAR>
0

>  <SCORE.INTRA.POLAR.0>
0

>  <SCORE.INTRA.REPUL>
0

>  <SCORE.INTRA.REPUL.0>
0

>  <SCORE.INTRA.SOLV>
0

>  <SCORE.INTRA.SOLV.lig_0>
-48.1583

>  <SCORE.INTRA.VDW>
0

>  <SCORE.INTRA.VDW.0>
0

>  <SCORE.INTRA.norm>
0

>  <SCORE.RESTR>
0

>  <SCORE.RESTR.CAVITY>
0

>  <SCORE.RESTR.norm>
0

>  <SCORE.SYSTEM>
0

>  <SCORE.SYSTEM.CONST>
0

>  <SCORE.SYSTEM.DIHEDRAL>
0

>  <SCORE.SYSTEM.SOLV>
0

>  <SCORE.SYSTEM.norm>
0

>  <SCORE.heavy>
12

>  <SCORE.norm>
-1.25102

>  <RMSD>
3.051

$$$$
ligand
 OpenBabel02271912143D
libRbt.so/2013.1/901 2013/11/27
 12 13  0  0  0  0  0  0  0  0999 V2000
    4.6848   15.4553    3.9759 C   0  0  0  0  0  0  0  0  0  0  0  0
    6.0406   17.0540    2.9556 C   0  0  0  0  0  0  0  0  0  0  0  0
    4.0027   14.3168    3.8898 N   0  0  0  0  0  0  0  0  0  0  0  0
    6.6823   17.5612    1.8973 N   0  0  0  0  0  0  0  0  0  0  0  0
    5.3272   15.9224    2.8830 N   0  0  0  0  0  0  0  0  0  0  0  0
    4.7473   16.1100    5.1566 N   0  0  0  0  0  0  0  0  0  0  0  0
    6.8928   19.6339    5.4627 N   0  0  0  0  0  0  0  0  0  0  0  0
    6.2172   19.1152    6.5781 C   0  0  0  0  0  0  0  0  0  0  0  0
    5.4782   17.9148    6.4619 N   0  0  0  0  0  0  0  0  0  0  0  0
    5.4475   17.2654    5.2782 C   0  0  0  0  0  0  0  0  0  0  0  0
    6.1248   17.7630    4.1603 C   0  0  0  0  0  0  0  0  0  0  0  0
    6.8542   18.9484    4.2324 C   0  0  0  0  0  0  0  0  0  0  0  0
  1  3  1  0  0  0  0
  1  5  1  0  0  0  0
  1  6  2  0  0  0  0
  2  5  2  0  0  0  0
  2 11  1  0  0  0  0
  2  4  1  0  0  0  0
  6 10  1  0  0  0  0
  7  8  2  0  0  0  0
  7 12  1  0  0  0  0
  8  9  1  0  0  0  0
  9 10  2  0  0  0  0
 10 11  1  0  0  0  0
 11 12  2  0  0  0  0
M  END
>  <CHROM.1>
5.69399767,17.22854600,4.40183394,2.26413040,-0.95280657,-2.02642437

>  <Name>
ligand

>  <RI>
0

>  <Rbt.Current_Directory>
/home/itssahil/PROJECTS/Mol_Feturizer/Test_systems_manuscript/rnas/4lx5

>  <Rbt.Executable>
rbdock ($Id: //depot/dev/client3/rdock/2013.1/src/exe/rbdock.cxx#4 $)

>  <Rbt.Library>
libRbt.so (2013.1, Build901 2013/11/27)

>  <Rbt.Parameter_File>
/export/apps/rDock/src/rDock_2013.1_src/data/scripts/dock_solv.prm

>  <Rbt.Receptor>
prm/pocket_docking_8.prm

>  <SCORE>
-15.0408

>  <SCORE.INTER>
-15.0408

>  <SCORE.INTER.CONST>
1

>  <SCORE.INTER.POLAR>
0

>  <SCORE.INTER.ROT>
0

>  <SCORE.INTER.SOLV>
15.6093

>  <SCORE.INTER.VDW>
-18.8303

>  <SCORE.INTER.norm>
-1.2534

>  <SCORE.INTRA>
0

>  <SCORE.INTRA.DIHEDRAL>
0

>  <SCORE.INTRA.DIHEDRAL.0>
0

>  <SCORE.INTRA.POLAR>
0

>  <SCORE.INTRA.POLAR.0>
0

>  <SCORE.INTRA.REPUL>
0

>  <SCORE.INTRA.REPUL.0>
0

>  <SCORE.INTRA.SOLV>
0

>  <SCORE.INTRA.SOLV.lig_0>
-48.1583

>  <SCORE.INTRA.VDW>
0

>  <SCORE.INTRA.VDW.0>
0

>  <SCORE.INTRA.norm>
0

>  <SCORE.RESTR>
0

>  <SCORE.RESTR.CAVITY>
0

>  <SCORE.RESTR.norm>
0

>  <SCORE.SYSTEM>
0

>  <SCORE.SYSTEM.CONST>
0

>  <SCORE.SYSTEM.DIHEDRAL>
0

>  <SCORE.SYSTEM.SOLV>
0

>  <SCORE.SYSTEM.norm>
0

>  <SCORE.heavy>
12

>  <SCORE.norm>
-1.2534

>  <RMSD>
3.051

$$$$
ligand
 OpenBabel02271912143D
libRbt.so/2013.1/901 2013/11/27
 12 13  0  0  0  0  0  0  0  0999 V2000
    4.6901   15.4603    3.9735 C   0  0  0  0  0  0  0  0  0  0  0  0
    6.0400   17.0678    2.9593 C   0  0  0  0  0  0  0  0  0  0  0  0
    4.0119   14.3198    3.8831 N   0  0  0  0  0  0  0  0  0  0  0  0
    6.6796   17.5814    1.9028 N   0  0  0  0  0  0  0  0  0  0  0  0
    5.3305   15.9340    2.8824 N   0  0  0  0  0  0  0  0  0  0  0  0
    4.7506   16.1105    5.1569 N   0  0  0  0  0  0  0  0  0  0  0  0
    6.8840   19.6406    5.4763 N   0  0  0  0  0  0  0  0  0  0  0  0
    6.2105   19.1152    6.5898 C   0  0  0  0  0  0  0  0  0  0  0  0
    5.4757   17.9126    6.4691 N   0  0  0  0  0  0  0  0  0  0  0  0
    5.4468   17.2678    5.2828 C   0  0  0  0  0  0  0  0  0  0  0  0
    6.1221   17.7723    4.1667 C   0  0  0  0  0  0  0  0  0  0  0  0
    6.8473   18.9599    4.2433 C   0  0  0  0  0  0  0  0  0  0  0  0
  1  3  1  0  0  0  0
  1  5  1  0  0  0  0
  1  6  2  0  0  0  0
  2  5  2  0  0  0  0
  2 11  1  0  0  0  0
  2  4  1  0  0  0  0
  6 10  1  0  0  0  0
  7  8  2  0  0  0  0
  7 12  1  0  0  0  0
  8  9  1  0  0  0  0
  9 10  2  0  0  0  0
 10 11  1  0  0  0  0
 11 12  2  0  0  0  0
M  END
>  <CHROM.1>
5.69319488,17.23536810,4.40625732,2.26194106,-0.95606901,-2.02422475

>  <Name>
ligand

>  <RI>
0

>  <Rbt.Current_Directory>
/home/itssahil/PROJECTS/Mol_Feturizer/Test_systems_manuscript/rnas/4lx5

>  <Rbt.Executable>
rbdock ($Id: //depot/dev/client3/rdock/2013.1/src/exe/rbdock.cxx#4 $)

>  <Rbt.Library>
libRbt.so (2013.1, Build901 2013/11/27)

>  <Rbt.Parameter_File>
/export/apps/rDock/src/rDock_2013.1_src/data/scripts/dock_solv.prm

>  <Rbt.Receptor>
prm/pocket_docking_8.prm

>  <SCORE>
-15.0413

>  <SCORE.INTER>
-15.0413

>  <SCORE.INTER.CONST>
1

>  <SCORE.INTER.POLAR>
0

>  <SCORE.INTER.ROT>
0

>  <SCORE.INTER.SOLV>
15.6397

>  <SCORE.INTER.VDW>
-18.8408

>  <SCORE.INTER.norm>
-1.25344

>  <SCORE.INTRA>
0

>  <SCORE.INTRA.DIHEDRAL>
0

>  <SCORE.INTRA.DIHEDRAL.0>
0

>  <SCORE.INTRA.POLAR>
0

>  <SCORE.INTRA.POLAR.0>
0

>  <SCORE.INTRA.REPUL>
0

>  <SCORE.INTRA.REPUL.0>
0

>  <SCORE.INTRA.SOLV>
0

>  <SCORE.INTRA.SOLV.lig_0>
-48.1583

>  <SCORE.INTRA.VDW>
0

>  <SCORE.INTRA.VDW.0>
0

>  <SCORE.INTRA.norm>
0

>  <SCORE.RESTR>
0

>  <SCORE.RESTR.CAVITY>
0

>  <SCORE.RESTR.norm>
0

>  <SCORE.SYSTEM>
0

>  <SCORE.SYSTEM.CONST>
0

>  <SCORE.SYSTEM.DIHEDRAL>
0

>  <SCORE.SYSTEM.SOLV>
0

>  <SCORE.SYSTEM.norm>
0

>  <SCORE.heavy>
12

>  <SCORE.norm>
-1.25344

>  <RMSD>
3.051

$$$$
ligand
 OpenBabel02271912143D
libRbt.so/2013.1/901 2013/11/27
 12 13  0  0  0  0  0  0  0  0999 V2000
    4.6638   15.4852    3.9634 C   0  0  0  0  0  0  0  0  0  0  0  0
    6.0322   17.0833    2.9592 C   0  0  0  0  0  0  0  0  0  0  0  0
    3.9743   14.3520    3.8664 N   0  0  0  0  0  0  0  0  0  0  0  0
    6.6794   17.5950    1.9064 N   0  0  0  0  0  0  0  0  0  0  0  0
    5.3115   15.9571    2.8757 N   0  0  0  0  0  0  0  0  0  0  0  0
    4.7281   16.1296    5.1496 N   0  0  0  0  0  0  0  0  0  0  0  0
    6.8963   19.6366    5.4893 N   0  0  0  0  0  0  0  0  0  0  0  0
    6.2149   19.1131    6.5990 C   0  0  0  0  0  0  0  0  0  0  0  0
    5.4683   17.9186    6.4713 N   0  0  0  0  0  0  0  0  0  0  0  0
    5.4357   17.2793    5.2822 C   0  0  0  0  0  0  0  0  0  0  0  0
    6.1186   17.7817    4.1698 C   0  0  0  0  0  0  0  0  0  0  0  0
    6.8556   18.9615    4.2533 C   0  0  0  0  0  0  0  0  0  0  0  0
  1  3  1  0  0  0  0
  1  5  1  0  0  0  0
  1  6  2  0  0  0  0
  2  5  2  0  0  0  0
  2 11  1  0  0  0  0
  2  4  1  0  0  0  0
  6 10  1  0  0  0  0
  7  8  2  0  0  0  0
  7 12  1  0  0  0  0
  8  9  1  0  0  0  0
  9 10  2  0  0  0  0
 10 11  1  0  0  0  0
 11 12  2  0  0  0  0
M  END
>  <CHROM.1>
5.68376648,17.24809694,4.40608689,2.26591965,-0.94595283,-2.01665229

>  <Name>
ligand

>  <RI>
0

>  <Rbt.Current_Directory>
/home/itssahil/PROJECTS/Mol_Feturizer/Test_systems_manuscript/rnas/4lx5

>  <Rbt.Executable>
rbdock ($Id: //depot/dev/client3/rdock/2013.1/src/exe/rbdock.cxx#4 $)

>  <Rbt.Library>
libRbt.so (2013.1, Build901 2013/11/27)

>  <Rbt.Parameter_File>
/export/apps/rDock/src/rDock_2013.1_src/data/scripts/dock_solv.prm

>  <Rbt.Receptor>
prm/pocket_docking_8.prm

>  <SCORE>
-15.0768

>  <SCORE.INTER>
-15.0768

>  <SCORE.INTER.CONST>
1

>  <SCORE.INTER.POLAR>
0

>  <SCORE.INTER.ROT>
0

>  <SCORE.INTER.SOLV>
15.4277

>  <SCORE.INTER.VDW>
-18.7938

>  <SCORE.INTER.norm>
-1.2564

>  <SCORE.INTRA>
0

>  <SCORE.INTRA.DIHEDRAL>
0

>  <SCORE.INTRA.DIHEDRAL.0>
0

>  <SCORE.INTRA.POLAR>
0

>  <SCORE.INTRA.POLAR.0>
0

>  <SCORE.INTRA.REPUL>
0

>  <SCORE.INTRA.REPUL.0>
0

>  <SCORE.INTRA.SOLV>
0

>  <SCORE.INTRA.SOLV.lig_0>
-48.1583

>  <SCORE.INTRA.VDW>
0

>  <SCORE.INTRA.VDW.0>
0

>  <SCORE.INTRA.norm>
0

>  <SCORE.RESTR>
0

>  <SCORE.RESTR.CAVITY>
0

>  <SCORE.RESTR.norm>
0

>  <SCORE.SYSTEM>
0

>  <SCORE.SYSTEM.CONST>
0

>  <SCORE.SYSTEM.DIHEDRAL>
0

>  <SCORE.SYSTEM.SOLV>
0

>  <SCORE.SYSTEM.norm>
0

>  <SCORE.heavy>
12

>  <SCORE.norm>
-1.2564

>  <RMSD>
3.051

$$$$
ligand
 OpenBabel02271912143D
libRbt.so/2013.1/901 2013/11/27
 12 13  0  0  0  0  0  0  0  0999 V2000
    4.6676   15.4552    3.9630 C   0  0  0  0  0  0  0  0  0  0  0  0
    6.0465   17.0470    2.9634 C   0  0  0  0  0  0  0  0  0  0  0  0
    3.9737   14.3248    3.8640 N   0  0  0  0  0  0  0  0  0  0  0  0
    6.6998   17.5555    1.9128 N   0  0  0  0  0  0  0  0  0  0  0  0
    5.3214   15.9238    2.8777 N   0  0  0  0  0  0  0  0  0  0  0  0
    4.7301   16.0999    5.1493 N   0  0  0  0  0  0  0  0  0  0  0  0
    6.9117   19.5978    5.4957 N   0  0  0  0  0  0  0  0  0  0  0  0
    6.2240   19.0777    6.6030 C   0  0  0  0  0  0  0  0  0  0  0  0
    5.4728   17.8863    6.4730 N   0  0  0  0  0  0  0  0  0  0  0  0
    5.4420   17.2466    5.2840 C   0  0  0  0  0  0  0  0  0  0  0  0
    6.1312   17.7456    4.1740 C   0  0  0  0  0  0  0  0  0  0  0  0
    6.8729   18.9224    4.2598 C   0  0  0  0  0  0  0  0  0  0  0  0
  1  3  1  0  0  0  0
  1  5  1  0  0  0  0
  1  6  2  0  0  0  0
  2  5  2  0  0  0  0
  2 11  1  0  0  0  0
  2  4  1  0  0  0  0
  6 10  1  0  0  0  0
  7  8  2  0  0  0  0
  7 12  1  0  0  0  0
  8  9  1  0  0  0  0
  9 10  2  0  0  0  0
 10 11  1  0  0  0  0
 11 12  2  0  0  0  0
M  END
>  <CHROM.1>
5.69326111,17.21396454,4.40886554,2.26320127,-0.94052012,-2.01929363

>  <Name>
ligand

>  <RI>
0

>  <Rbt.Current_Directory>
/home/itssahil/PROJECTS/Mol_Feturizer/Test_systems_manuscript/rnas/4lx5

>  <Rbt.Executable>
rbdock ($Id: //depot/dev/client3/rdock/2013.1/src/exe/rbdock.cxx#4 $)

>  <Rbt.Library>
libRbt.so (2013.1, Build901 2013/11/27)

>  <Rbt.Parameter_File>
/export/apps/rDock/src/rDock_2013.1_src/data/scripts/dock_solv.prm

>  <Rbt.Receptor>
prm/blind_docking_100.prm

>  <SCORE>
-15.009

>  <SCORE.INTER>
-15.009

>  <SCORE.INTER.CONST>
1

>  <SCORE.INTER.POLAR>
0

>  <SCORE.INTER.ROT>
0

>  <SCORE.INTER.SOLV>
15.4424

>  <SCORE.INTER.VDW>
-18.7535

>  <SCORE.INTER.norm>
-1.25075

>  <SCORE.INTRA>
0

>  <SCORE.INTRA.DIHEDRAL>
0

>  <SCORE.INTRA.DIHEDRAL.0>
0

>  <SCORE.INTRA.POLAR>
0

>  <SCORE.INTRA.POLAR.0>
0

>  <SCORE.INTRA.REPUL>
0

>  <SCORE.INTRA.REPUL.0>
0

>  <SCORE.INTRA.SOLV>
0

>  <SCORE.INTRA.SOLV.lig_0>
-48.1583

>  <SCORE.INTRA.VDW>
0

>  <SCORE.INTRA.VDW.0>
0

>  <SCORE.INTRA.norm>
0

>  <SCORE.RESTR>
0

>  <SCORE.RESTR.CAVITY>
0

>  <SCORE.RESTR.norm>
0

>  <SCORE.SYSTEM>
0

>  <SCORE.SYSTEM.CONST>
0

>  <SCORE.SYSTEM.DIHEDRAL>
0

>  <SCORE.SYSTEM.SOLV>
0

>  <SCORE.SYSTEM.norm>
0

>  <SCORE.heavy>
12

>  <SCORE.norm>
-1.25075

>  <RMSD>
3.052

$$$$
ligand
 OpenBabel02271912143D
libRbt.so/2013.1/901 2013/11/27
 12 13  0  0  0  0  0  0  0  0999 V2000
    4.1688   15.7272    3.8006 C   0  0  0  0  0  0  0  0  0  0  0  0
    5.7820   17.0707    2.7871 C   0  0  0  0  0  0  0  0  0  0  0  0
    3.2687   14.7534    3.6986 N   0  0  0  0  0  0  0  0  0  0  0  0
    6.4751   17.4904    1.7228 N   0  0  0  0  0  0  0  0  0  0  0  0
    4.8532   16.1092    2.7002 N   0  0  0  0  0  0  0  0  0  0  0  0
    4.4033   16.2980    5.0030 N   0  0  0  0  0  0  0  0  0  0  0  0
    7.2241   19.3035    5.3566 N   0  0  0  0  0  0  0  0  0  0  0  0
    6.4975   18.8766    6.4788 C   0  0  0  0  0  0  0  0  0  0  0  0
    5.5283   17.8549    6.3468 N   0  0  0  0  0  0  0  0  0  0  0  0
    5.3257   17.2830    5.1402 C   0  0  0  0  0  0  0  0  0  0  0  0
    6.0496   17.6892    4.0146 C   0  0  0  0  0  0  0  0  0  0  0  0
    7.0049   18.7002    4.1024 C   0  0  0  0  0  0  0  0  0  0  0  0
  1  3  1  0  0  0  0
  1  5  1  0  0  0  0
  1  6  2  0  0  0  0
  2  5  2  0  0  0  0
  2 11  1  0  0  0  0
  2  4  1  0  0  0  0
  6 10  1  0  0  0  0
  7  8  2  0  0  0  0
  7 12  1  0  0  0  0
  8  9  1  0  0  0  0
  9 10  2  0  0  0  0
 10 11  1  0  0  0  0
 11 12  2  0  0  0  0
M  END
>  <CHROM.1>
5.52877902,17.24040957,4.25307155,2.43375083,-0.77819085,-1.85156270

>  <Name>
ligand

>  <RI>
0

>  <Rbt.Current_Directory>
/home/itssahil/PROJECTS/Mol_Feturizer/Test_systems_manuscript/rnas/4lx5

>  <Rbt.Executable>
rbdock ($Id: //depot/dev/client3/rdock/2013.1/src/exe/rbdock.cxx#4 $)

>  <Rbt.Library>
libRbt.so (2013.1, Build901 2013/11/27)

>  <Rbt.Parameter_File>
/export/apps/rDock/src/rDock_2013.1_src/data/scripts/dock_solv.prm

>  <Rbt.Receptor>
prm/blind_docking_80.prm

>  <SCORE>
-14.0575

>  <SCORE.INTER>
-14.0575

>  <SCORE.INTER.CONST>
1

>  <SCORE.INTER.POLAR>
0

>  <SCORE.INTER.ROT>
0

>  <SCORE.INTER.SOLV>
12.6884

>  <SCORE.INTER.VDW>
-17.2011

>  <SCORE.INTER.norm>
-1.17146

>  <SCORE.INTRA>
0

>  <SCORE.INTRA.DIHEDRAL>
0

>  <SCORE.INTRA.DIHEDRAL.0>
0

>  <SCORE.INTRA.POLAR>
0

>  <SCORE.INTRA.POLAR.0>
0

>  <SCORE.INTRA.REPUL>
0

>  <SCORE.INTRA.REPUL.0>
0

>  <SCORE.INTRA.SOLV>
0

>  <SCORE.INTRA.SOLV.lig_0>
-48.1583

>  <SCORE.INTRA.VDW>
0

>  <SCORE.INTRA.VDW.0>
0

>  <SCORE.INTRA.norm>
0

>  <SCORE.RESTR>
0

>  <SCORE.RESTR.CAVITY>
0

>  <SCORE.RESTR.norm>
0

>  <SCORE.SYSTEM>
0

>  <SCORE.SYSTEM.CONST>
0

>  <SCORE.SYSTEM.DIHEDRAL>
0

>  <SCORE.SYSTEM.SOLV>
0

>  <SCORE.SYSTEM.norm>
0

>  <SCORE.heavy>
12

>  <SCORE.norm>
-1.17146

>  <RMSD>
3.052

$$$$
ligand
 OpenBabel02271912143D
libRbt.so/2013.1/901 2013/11/27
 12 13  0  0  0  0  0  0  0  0999 V2000
    4.6833   15.4540    3.9782 C   0  0  0  0  0  0  0  0  0  0  0  0
    6.0408   17.0512    2.9578 C   0  0  0  0  0  0  0  0  0  0  0  0
    4.0007   14.3158    3.8924 N   0  0  0  0  0  0  0  0  0  0  0  0
    6.6838   17.5572    1.8997 N   0  0  0  0  0  0  0  0  0  0  0  0
    5.3270   15.9199    2.8855 N   0  0  0  0  0  0  0  0  0  0  0  0
    4.7448   16.1098    5.1584 N   0  0  0  0  0  0  0  0  0  0  0  0
    6.8917   19.6329    5.4635 N   0  0  0  0  0  0  0  0  0  0  0  0
    6.2147   19.1155    6.5787 C   0  0  0  0  0  0  0  0  0  0  0  0
    5.4753   17.9153    6.4628 N   0  0  0  0  0  0  0  0  0  0  0  0
    5.4455   17.2649    5.2796 C   0  0  0  0  0  0  0  0  0  0  0  0
    6.1241   17.7612    4.1619 C   0  0  0  0  0  0  0  0  0  0  0  0
    6.8539   18.9463    4.2337 C   0  0  0  0  0  0  0  0  0  0  0  0
  1  3  1  0  0  0  0
  1  5  1  0  0  0  0
  1  6  2  0  0  0  0
  2  5  2  0  0  0  0
  2 11  1  0  0  0  0
  2  4  1  0  0  0  0
  6 10  1  0  0  0  0
  7  8  2  0  0  0  0
  7 12  1  0  0  0  0
  8  9  1  0  0  0  0
  9 10  2  0  0  0  0
 10 11  1  0  0  0  0
 11 12  2  0  0  0  0
M  END
>  <CHROM.1>
5.69282618,17.22720017,4.40356293,2.26293585,-0.95195544,-2.02826892

>  <Name>
ligand

>  <RI>
0

>  <Rbt.Current_Directory>
/home/itssahil/PROJECTS/Mol_Feturizer/Test_systems_manuscript/rnas/4lx5

>  <Rbt.Executable>
rbdock ($Id: //depot/dev/client3/rdock/2013.1/src/exe/rbdock.cxx#4 $)

>  <Rbt.Library>
libRbt.so (2013.1, Build901 2013/11/27)

>  <Rbt.Parameter_File>
/export/apps/rDock/src/rDock_2013.1_src/data/scripts/dock_solv.prm

>  <Rbt.Receptor>
prm/pocket_docking_3.prm

>  <SCORE>
-15.0391

>  <SCORE.INTER>
-15.0391

>  <SCORE.INTER.CONST>
1

>  <SCORE.INTER.POLAR>
0

>  <SCORE.INTER.ROT>
0

>  <SCORE.INTER.SOLV>
15.6014

>  <SCORE.INTER.VDW>
-18.8265

>  <SCORE.INTER.norm>
-1.25326

>  <SCORE.INTRA>
0

>  <SCORE.INTRA.DIHEDRAL>
0

>  <SCORE.INTRA.DIHEDRAL.0>
0

>  <SCORE.INTRA.POLAR>
0

>  <SCORE.INTRA.POLAR.0>
0

>  <SCORE.INTRA.REPUL>
0

>  <SCORE.INTRA.REPUL.0>
0

>  <SCORE.INTRA.SOLV>
0

>  <SCORE.INTRA.SOLV.lig_0>
-48.1583

>  <SCORE.INTRA.VDW>
0

>  <SCORE.INTRA.VDW.0>
0

>  <SCORE.INTRA.norm>
0

>  <SCORE.RESTR>
0

>  <SCORE.RESTR.CAVITY>
0

>  <SCORE.RESTR.norm>
0

>  <SCORE.SYSTEM>
0

>  <SCORE.SYSTEM.CONST>
0

>  <SCORE.SYSTEM.DIHEDRAL>
0

>  <SCORE.SYSTEM.SOLV>
0

>  <SCORE.SYSTEM.norm>
0

>  <SCORE.heavy>
12

>  <SCORE.norm>
-1.25326

>  <RMSD>
3.052

$$$$
ligand
 OpenBabel02271912143D
libRbt.so/2013.1/901 2013/11/27
 12 13  0  0  0  0  0  0  0  0999 V2000
    4.6647   15.4505    3.9630 C   0  0  0  0  0  0  0  0  0  0  0  0
    6.0412   17.0455    2.9650 C   0  0  0  0  0  0  0  0  0  0  0  0
    3.9743   14.3181    3.8634 N   0  0  0  0  0  0  0  0  0  0  0  0
    6.6953   17.5551    1.9155 N   0  0  0  0  0  0  0  0  0  0  0  0
    5.3195   15.9202    2.8787 N   0  0  0  0  0  0  0  0  0  0  0  0
    4.7229   16.0963    5.1489 N   0  0  0  0  0  0  0  0  0  0  0  0
    6.8938   19.6007    5.4971 N   0  0  0  0  0  0  0  0  0  0  0  0
    6.2052   19.0796    6.6034 C   0  0  0  0  0  0  0  0  0  0  0  0
    5.4577   17.8859    6.4728 N   0  0  0  0  0  0  0  0  0  0  0  0
    5.4313   17.2452    5.2842 C   0  0  0  0  0  0  0  0  0  0  0  0
    6.1214   17.7453    4.1753 C   0  0  0  0  0  0  0  0  0  0  0  0
    6.8595   18.9243    4.2617 C   0  0  0  0  0  0  0  0  0  0  0  0
  1  3  1  0  0  0  0
  1  5  1  0  0  0  0
  1  6  2  0  0  0  0
  2  5  2  0  0  0  0
  2 11  1  0  0  0  0
  2  4  1  0  0  0  0
  6 10  1  0  0  0  0
  7  8  2  0  0  0  0
  7 12  1  0  0  0  0
  8  9  1  0  0  0  0
  9 10  2  0  0  0  0
 10 11  1  0  0  0  0
 11 12  2  0  0  0  0
M  END
>  <CHROM.1>
5.68444496,17.21260000,4.40964704,2.25784907,-0.94217816,-2.02440087

>  <Name>
ligand

>  <RI>
0

>  <Rbt.Current_Directory>
/home/itssahil/PROJECTS/Mol_Feturizer/Test_systems_manuscript/rnas/4lx5

>  <Rbt.Executable>
rbdock ($Id: //depot/dev/client3/rdock/2013.1/src/exe/rbdock.cxx#4 $)

>  <Rbt.Library>
libRbt.so (2013.1, Build901 2013/11/27)

>  <Rbt.Parameter_File>
/export/apps/rDock/src/rDock_2013.1_src/data/scripts/dock_solv.prm

>  <Rbt.Receptor>
prm/pocket_docking_7.prm

>  <SCORE>
-15.0126

>  <SCORE.INTER>
-15.0126

>  <SCORE.INTER.CONST>
1

>  <SCORE.INTER.POLAR>
0

>  <SCORE.INTER.ROT>
0

>  <SCORE.INTER.SOLV>
15.4436

>  <SCORE.INTER.VDW>
-18.7563

>  <SCORE.INTER.norm>
-1.25105

>  <SCORE.INTRA>
0

>  <SCORE.INTRA.DIHEDRAL>
0

>  <SCORE.INTRA.DIHEDRAL.0>
0

>  <SCORE.INTRA.POLAR>
0

>  <SCORE.INTRA.POLAR.0>
0

>  <SCORE.INTRA.REPUL>
0

>  <SCORE.INTRA.REPUL.0>
0

>  <SCORE.INTRA.SOLV>
0

>  <SCORE.INTRA.SOLV.lig_0>
-48.1583

>  <SCORE.INTRA.VDW>
0

>  <SCORE.INTRA.VDW.0>
0

>  <SCORE.INTRA.norm>
0

>  <SCORE.RESTR>
0

>  <SCORE.RESTR.CAVITY>
0

>  <SCORE.RESTR.norm>
0

>  <SCORE.SYSTEM>
0

>  <SCORE.SYSTEM.CONST>
0

>  <SCORE.SYSTEM.DIHEDRAL>
0

>  <SCORE.SYSTEM.SOLV>
0

>  <SCORE.SYSTEM.norm>
0

>  <SCORE.heavy>
12

>  <SCORE.norm>
-1.25105

>  <RMSD>
3.052

$$$$
ligand
 OpenBabel02271912143D
libRbt.so/2013.1/901 2013/11/27
 12 13  0  0  0  0  0  0  0  0999 V2000
    4.6895   15.4517    3.9802 C   0  0  0  0  0  0  0  0  0  0  0  0
    6.0508   17.0477    2.9631 C   0  0  0  0  0  0  0  0  0  0  0  0
    4.0069   14.3136    3.8931 N   0  0  0  0  0  0  0  0  0  0  0  0
    6.6975   17.5525    1.9067 N   0  0  0  0  0  0  0  0  0  0  0  0
    5.3370   15.9165    2.8894 N   0  0  0  0  0  0  0  0  0  0  0  0
    4.7471   16.1085    5.1600 N   0  0  0  0  0  0  0  0  0  0  0  0
    6.8937   19.6316    5.4692 N   0  0  0  0  0  0  0  0  0  0  0  0
    6.2128   19.1154    6.5825 C   0  0  0  0  0  0  0  0  0  0  0  0
    5.4735   17.9152    6.4653 N   0  0  0  0  0  0  0  0  0  0  0  0
    5.4476   17.2636    5.2826 C   0  0  0  0  0  0  0  0  0  0  0  0
    6.1301   17.7588    4.1668 C   0  0  0  0  0  0  0  0  0  0  0  0
    6.8600   18.9438    4.2400 C   0  0  0  0  0  0  0  0  0  0  0  0
  1  3  1  0  0  0  0
  1  5  1  0  0  0  0
  1  6  2  0  0  0  0
  2  5  2  0  0  0  0
  2 11  1  0  0  0  0
  2  4  1  0  0  0  0
  6 10  1  0  0  0  0
  7  8  2  0  0  0  0
  7 12  1  0  0  0  0
  8  9  1  0  0  0  0
  9 10  2  0  0  0  0
 10 11  1  0  0  0  0
 11 12  2  0  0  0  0
M  END
>  <CHROM.1>
5.69791197,17.22509071,4.40742890,2.25780312,-0.95024813,-2.03338252

>  <Name>
ligand

>  <RI>
0

>  <Rbt.Current_Directory>
/home/itssahil/PROJECTS/Mol_Feturizer/Test_systems_manuscript/rnas/4lx5

>  <Rbt.Executable>
rbdock ($Id: //depot/dev/client3/rdock/2013.1/src/exe/rbdock.cxx#4 $)

>  <Rbt.Library>
libRbt.so (2013.1, Build901 2013/11/27)

>  <Rbt.Parameter_File>
/export/apps/rDock/src/rDock_2013.1_src/data/scripts/dock_solv.prm

>  <Rbt.Receptor>
prm/blind_docking_100.prm

>  <SCORE>
-15.0325

>  <SCORE.INTER>
-15.0325

>  <SCORE.INTER.CONST>
1

>  <SCORE.INTER.POLAR>
0

>  <SCORE.INTER.ROT>
0

>  <SCORE.INTER.SOLV>
15.6441

>  <SCORE.INTER.VDW>
-18.8363

>  <SCORE.INTER.norm>
-1.2527

>  <SCORE.INTRA>
0

>  <SCORE.INTRA.DIHEDRAL>
0

>  <SCORE.INTRA.DIHEDRAL.0>
0

>  <SCORE.INTRA.POLAR>
0

>  <SCORE.INTRA.POLAR.0>
0

>  <SCORE.INTRA.REPUL>
0

>  <SCORE.INTRA.REPUL.0>
0

>  <SCORE.INTRA.SOLV>
0

>  <SCORE.INTRA.SOLV.lig_0>
-48.1583

>  <SCORE.INTRA.VDW>
0

>  <SCORE.INTRA.VDW.0>
0

>  <SCORE.INTRA.norm>
0

>  <SCORE.RESTR>
0

>  <SCORE.RESTR.CAVITY>
0

>  <SCORE.RESTR.norm>
0

>  <SCORE.SYSTEM>
0

>  <SCORE.SYSTEM.CONST>
0

>  <SCORE.SYSTEM.DIHEDRAL>
0

>  <SCORE.SYSTEM.SOLV>
0

>  <SCORE.SYSTEM.norm>
0

>  <SCORE.heavy>
12

>  <SCORE.norm>
-1.2527

>  <RMSD>
3.053

$$$$
ligand
 OpenBabel02271912143D
libRbt.so/2013.1/901 2013/11/27
 12 13  0  0  0  0  0  0  0  0999 V2000
    4.6562   15.4394    3.9759 C   0  0  0  0  0  0  0  0  0  0  0  0
    6.0018   17.0374    2.9410 C   0  0  0  0  0  0  0  0  0  0  0  0
    3.9731   14.3010    3.8973 N   0  0  0  0  0  0  0  0  0  0  0  0
    6.6327   17.5439    1.8759 N   0  0  0  0  0  0  0  0  0  0  0  0
    5.2875   15.9059    2.8763 N   0  0  0  0  0  0  0  0  0  0  0  0
    4.7307   16.0948    5.1555 N   0  0  0  0  0  0  0  0  0  0  0  0
    6.8797   19.6186    5.4378 N   0  0  0  0  0  0  0  0  0  0  0  0
    6.2153   19.1007    6.5603 C   0  0  0  0  0  0  0  0  0  0  0  0
    5.4751   17.9003    6.4523 N   0  0  0  0  0  0  0  0  0  0  0  0
    5.4323   17.2501    5.2693 C   0  0  0  0  0  0  0  0  0  0  0  0
    6.0983   17.7470    4.1443 C   0  0  0  0  0  0  0  0  0  0  0  0
    6.8285   18.9324    4.2083 C   0  0  0  0  0  0  0  0  0  0  0  0
  1  3  1  0  0  0  0
  1  5  1  0  0  0  0
  1  6  2  0  0  0  0
  2  5  2  0  0  0  0
  2 11  1  0  0  0  0
  2  4  1  0  0  0  0
  6 10  1  0  0  0  0
  7  8  2  0  0  0  0
  7 12  1  0  0  0  0
  8  9  1  0  0  0  0
  9 10  2  0  0  0  0
 10 11  1  0  0  0  0
 11 12  2  0  0  0  0
M  END
>  <CHROM.1>
5.66984933,17.21280651,4.39055541,2.28003483,-0.95709452,-2.01401196

>  <Name>
ligand

>  <RI>
0

>  <Rbt.Current_Directory>
/home/itssahil/PROJECTS/Mol_Feturizer/Test_systems_manuscript/rnas/4lx5

>  <Rbt.Executable>
rbdock ($Id: //depot/dev/client3/rdock/2013.1/src/exe/rbdock.cxx#4 $)

>  <Rbt.Library>
libRbt.so (2013.1, Build901 2013/11/27)

>  <Rbt.Parameter_File>
/export/apps/rDock/src/rDock_2013.1_src/data/scripts/dock_solv.prm

>  <Rbt.Receptor>
prm/pocket_docking_4.prm

>  <SCORE>
-15.0344

>  <SCORE.INTER>
-15.0344

>  <SCORE.INTER.CONST>
1

>  <SCORE.INTER.POLAR>
0

>  <SCORE.INTER.ROT>
0

>  <SCORE.INTER.SOLV>
15.424

>  <SCORE.INTER.VDW>
-18.7643

>  <SCORE.INTER.norm>
-1.25287

>  <SCORE.INTRA>
0

>  <SCORE.INTRA.DIHEDRAL>
0

>  <SCORE.INTRA.DIHEDRAL.0>
0

>  <SCORE.INTRA.POLAR>
0

>  <SCORE.INTRA.POLAR.0>
0

>  <SCORE.INTRA.REPUL>
0

>  <SCORE.INTRA.REPUL.0>
0

>  <SCORE.INTRA.SOLV>
0

>  <SCORE.INTRA.SOLV.lig_0>
-48.1583

>  <SCORE.INTRA.VDW>
0

>  <SCORE.INTRA.VDW.0>
0

>  <SCORE.INTRA.norm>
0

>  <SCORE.RESTR>
0

>  <SCORE.RESTR.CAVITY>
0

>  <SCORE.RESTR.norm>
0

>  <SCORE.SYSTEM>
0

>  <SCORE.SYSTEM.CONST>
0

>  <SCORE.SYSTEM.DIHEDRAL>
0

>  <SCORE.SYSTEM.SOLV>
0

>  <SCORE.SYSTEM.norm>
0

>  <SCORE.heavy>
12

>  <SCORE.norm>
-1.25287

>  <RMSD>
3.054

$$$$
ligand
 OpenBabel02271912143D
libRbt.so/2013.1/901 2013/11/27
 12 13  0  0  0  0  0  0  0  0999 V2000
    4.6793   15.4519    3.9840 C   0  0  0  0  0  0  0  0  0  0  0  0
    6.0426   17.0422    2.9606 C   0  0  0  0  0  0  0  0  0  0  0  0
    3.9931   14.3157    3.9006 N   0  0  0  0  0  0  0  0  0  0  0  0
    6.6878   17.5435    1.9017 N   0  0  0  0  0  0  0  0  0  0  0  0
    5.3251   15.9130    2.8907 N   0  0  0  0  0  0  0  0  0  0  0  0
    4.7422   16.1104    5.1627 N   0  0  0  0  0  0  0  0  0  0  0  0
    6.9003   19.6273    5.4604 N   0  0  0  0  0  0  0  0  0  0  0  0
    6.2209   19.1149    6.5765 C   0  0  0  0  0  0  0  0  0  0  0  0
    5.4777   17.9168    6.4631 N   0  0  0  0  0  0  0  0  0  0  0  0
    5.4465   17.2635    5.2815 C   0  0  0  0  0  0  0  0  0  0  0  0
    6.1274   17.7549    4.1630 C   0  0  0  0  0  0  0  0  0  0  0  0
    6.8610   18.9378    4.2324 C   0  0  0  0  0  0  0  0  0  0  0  0
  1  3  1  0  0  0  0
  1  5  1  0  0  0  0
  1  6  2  0  0  0  0
  2  5  2  0  0  0  0
  2 11  1  0  0  0  0
  2  4  1  0  0  0  0
  6 10  1  0  0  0  0
  7  8  2  0  0  0  0
  7 12  1  0  0  0  0
  8  9  1  0  0  0  0
  9 10  2  0  0  0  0
 10 11  1  0  0  0  0
 11 12  2  0  0  0  0
M  END
>  <CHROM.1>
5.69427750,17.22288636,4.40569540,2.26443167,-0.94878537,-2.02952117

>  <Name>
ligand

>  <RI>
0

>  <Rbt.Current_Directory>
/home/itssahil/PROJECTS/Mol_Feturizer/Test_systems_manuscript/rnas/4lx5

>  <Rbt.Executable>
rbdock ($Id: //depot/dev/client3/rdock/2013.1/src/exe/rbdock.cxx#4 $)

>  <Rbt.Library>
libRbt.so (2013.1, Build901 2013/11/27)

>  <Rbt.Parameter_File>
/export/apps/rDock/src/rDock_2013.1_src/data/scripts/dock_solv.prm

>  <Rbt.Receptor>
prm/pocket_docking_6.prm

>  <SCORE>
-15.0343

>  <SCORE.INTER>
-15.0343

>  <SCORE.INTER.CONST>
1

>  <SCORE.INTER.POLAR>
0

>  <SCORE.INTER.ROT>
0

>  <SCORE.INTER.SOLV>
15.5718

>  <SCORE.INTER.VDW>
-18.8135

>  <SCORE.INTER.norm>
-1.25286

>  <SCORE.INTRA>
0

>  <SCORE.INTRA.DIHEDRAL>
0

>  <SCORE.INTRA.DIHEDRAL.0>
0

>  <SCORE.INTRA.POLAR>
0

>  <SCORE.INTRA.POLAR.0>
0

>  <SCORE.INTRA.REPUL>
0

>  <SCORE.INTRA.REPUL.0>
0

>  <SCORE.INTRA.SOLV>
0

>  <SCORE.INTRA.SOLV.lig_0>
-48.1583

>  <SCORE.INTRA.VDW>
0

>  <SCORE.INTRA.VDW.0>
0

>  <SCORE.INTRA.norm>
0

>  <SCORE.RESTR>
0

>  <SCORE.RESTR.CAVITY>
0

>  <SCORE.RESTR.norm>
0

>  <SCORE.SYSTEM>
0

>  <SCORE.SYSTEM.CONST>
0

>  <SCORE.SYSTEM.DIHEDRAL>
0

>  <SCORE.SYSTEM.SOLV>
0

>  <SCORE.SYSTEM.norm>
0

>  <SCORE.heavy>
12

>  <SCORE.norm>
-1.25286

>  <RMSD>
3.054

$$$$
ligand
 OpenBabel02271912143D
libRbt.so/2013.1/901 2013/11/27
 12 13  0  0  0  0  0  0  0  0999 V2000
    4.4483   15.1103    3.7508 C   0  0  0  0  0  0  0  0  0  0  0  0
    5.8043   16.7101    2.7326 C   0  0  0  0  0  0  0  0  0  0  0  0
    3.7467   13.9843    3.6568 N   0  0  0  0  0  0  0  0  0  0  0  0
    6.4286   17.2303    1.6702 N   0  0  0  0  0  0  0  0  0  0  0  0
    5.0719   15.5912    2.6530 N   0  0  0  0  0  0  0  0  0  0  0  0
    4.5487   15.7384    4.9433 N   0  0  0  0  0  0  0  0  0  0  0  0
    6.7553   19.2222    5.2727 N   0  0  0  0  0  0  0  0  0  0  0  0
    6.0981   18.6898    6.3927 C   0  0  0  0  0  0  0  0  0  0  0  0
    5.3381   17.5034    6.2687 N   0  0  0  0  0  0  0  0  0  0  0  0
    5.2694   16.8802    5.0726 C   0  0  0  0  0  0  0  0  0  0  0  0
    5.9278   17.3916    3.9496 C   0  0  0  0  0  0  0  0  0  0  0  0
    6.6770   18.5641    4.0294 C   0  0  0  0  0  0  0  0  0  0  0  0
  1  3  1  0  0  0  0
  1  5  1  0  0  0  0
  1  6  2  0  0  0  0
  2  5  2  0  0  0  0
  2 11  1  0  0  0  0
  2  4  1  0  0  0  0
  6 10  1  0  0  0  0
  7  8  2  0  0  0  0
  7 12  1  0  0  0  0
  8  9  1  0  0  0  0
  9 10  2  0  0  0  0
 10 11  1  0  0  0  0
 11 12  2  0  0  0  0
M  END
>  <CHROM.1>
5.49457115,16.85859182,4.19001347,2.31217840,-0.94869244,-1.96590927

>  <Name>
ligand

>  <RI>
0

>  <Rbt.Current_Directory>
/home/itssahil/PROJECTS/Mol_Feturizer/Test_systems_manuscript/rnas/4lx5

>  <Rbt.Executable>
rbdock ($Id: //depot/dev/client3/rdock/2013.1/src/exe/rbdock.cxx#4 $)

>  <Rbt.Library>
libRbt.so (2013.1, Build901 2013/11/27)

>  <Rbt.Parameter_File>
/export/apps/rDock/src/rDock_2013.1_src/data/scripts/dock_solv.prm

>  <Rbt.Receptor>
prm/blind_docking_40.prm

>  <SCORE>
-14.5172

>  <SCORE.INTER>
-14.5172

>  <SCORE.INTER.CONST>
1

>  <SCORE.INTER.POLAR>
0

>  <SCORE.INTER.ROT>
0

>  <SCORE.INTER.SOLV>
14.5797

>  <SCORE.INTER.VDW>
-18.138

>  <SCORE.INTER.norm>
-1.20977

>  <SCORE.INTRA>
0

>  <SCORE.INTRA.DIHEDRAL>
0

>  <SCORE.INTRA.DIHEDRAL.0>
0

>  <SCORE.INTRA.POLAR>
0

>  <SCORE.INTRA.POLAR.0>
0

>  <SCORE.INTRA.REPUL>
0

>  <SCORE.INTRA.REPUL.0>
0

>  <SCORE.INTRA.SOLV>
0

>  <SCORE.INTRA.SOLV.lig_0>
-48.1583

>  <SCORE.INTRA.VDW>
0

>  <SCORE.INTRA.VDW.0>
0

>  <SCORE.INTRA.norm>
0

>  <SCORE.RESTR>
0

>  <SCORE.RESTR.CAVITY>
0

>  <SCORE.RESTR.norm>
0

>  <SCORE.SYSTEM>
0

>  <SCORE.SYSTEM.CONST>
0

>  <SCORE.SYSTEM.DIHEDRAL>
0

>  <SCORE.SYSTEM.SOLV>
0

>  <SCORE.SYSTEM.norm>
0

>  <SCORE.heavy>
12

>  <SCORE.norm>
-1.20977

>  <RMSD>
3.055

$$$$
ligand
 OpenBabel02271912143D
libRbt.so/2013.1/901 2013/11/27
 12 13  0  0  0  0  0  0  0  0999 V2000
    4.5400   15.2478    3.8827 C   0  0  0  0  0  0  0  0  0  0  0  0
    5.8475   16.8665    2.8316 C   0  0  0  0  0  0  0  0  0  0  0  0
    3.8539   14.1109    3.8064 N   0  0  0  0  0  0  0  0  0  0  0  0
    6.4393   17.3945    1.7545 N   0  0  0  0  0  0  0  0  0  0  0  0
    5.1308   15.7363    2.7703 N   0  0  0  0  0  0  0  0  0  0  0  0
    4.6579   15.8793    5.0718 N   0  0  0  0  0  0  0  0  0  0  0  0
    6.8175   19.3973    5.3459 N   0  0  0  0  0  0  0  0  0  0  0  0
    6.1945   18.8567    6.4813 C   0  0  0  0  0  0  0  0  0  0  0  0
    5.4501   17.6585    6.3765 N   0  0  0  0  0  0  0  0  0  0  0  0
    5.3637   17.0323    5.1830 C   0  0  0  0  0  0  0  0  0  0  0  0
    5.9883   17.5519    4.0446 C   0  0  0  0  0  0  0  0  0  0  0  0
    6.7209   18.7359    4.1056 C   0  0  0  0  0  0  0  0  0  0  0  0
  1  3  1  0  0  0  0
  1  5  1  0  0  0  0
  1  6  2  0  0  0  0
  2  5  2  0  0  0  0
  2 11  1  0  0  0  0
  2  4  1  0  0  0  0
  6 10  1  0  0  0  0
  7  8  2  0  0  0  0
  7 12  1  0  0  0  0
  8  9  1  0  0  0  0
  9 10  2  0  0  0  0
 10 11  1  0  0  0  0
 11 12  2  0  0  0  0
M  END
>  <CHROM.1>
5.56896953,17.01269611,4.29555294,2.33909409,-0.97157500,-1.94537033

>  <Name>
ligand

>  <RI>
0

>  <Rbt.Current_Directory>
/home/itssahil/PROJECTS/Mol_Feturizer/Test_systems_manuscript/rnas/4lx5

>  <Rbt.Executable>
rbdock ($Id: //depot/dev/client3/rdock/2013.1/src/exe/rbdock.cxx#4 $)

>  <Rbt.Library>
libRbt.so (2013.1, Build901 2013/11/27)

>  <Rbt.Parameter_File>
/export/apps/rDock/src/rDock_2013.1_src/data/scripts/dock_solv.prm

>  <Rbt.Receptor>
prm/pocket_docking_3.prm

>  <SCORE>
-14.6905

>  <SCORE.INTER>
-14.6905

>  <SCORE.INTER.CONST>
1

>  <SCORE.INTER.POLAR>
0

>  <SCORE.INTER.ROT>
0

>  <SCORE.INTER.SOLV>
14.7735

>  <SCORE.INTER.VDW>
-18.3181

>  <SCORE.INTER.norm>
-1.2242

>  <SCORE.INTRA>
0

>  <SCORE.INTRA.DIHEDRAL>
0

>  <SCORE.INTRA.DIHEDRAL.0>
0

>  <SCORE.INTRA.POLAR>
0

>  <SCORE.INTRA.POLAR.0>
0

>  <SCORE.INTRA.REPUL>
0

>  <SCORE.INTRA.REPUL.0>
0

>  <SCORE.INTRA.SOLV>
0

>  <SCORE.INTRA.SOLV.lig_0>
-48.1583

>  <SCORE.INTRA.VDW>
0

>  <SCORE.INTRA.VDW.0>
0

>  <SCORE.INTRA.norm>
0

>  <SCORE.RESTR>
0

>  <SCORE.RESTR.CAVITY>
0

>  <SCORE.RESTR.norm>
0

>  <SCORE.SYSTEM>
0

>  <SCORE.SYSTEM.CONST>
0

>  <SCORE.SYSTEM.DIHEDRAL>
0

>  <SCORE.SYSTEM.SOLV>
0

>  <SCORE.SYSTEM.norm>
0

>  <SCORE.heavy>
12

>  <SCORE.norm>
-1.2242

>  <RMSD>
3.055

$$$$
ligand
 OpenBabel02271912143D
libRbt.so/2013.1/901 2013/11/27
 12 13  0  0  0  0  0  0  0  0999 V2000
    4.6553   15.4395    3.9769 C   0  0  0  0  0  0  0  0  0  0  0  0
    6.0001   17.0392    2.9437 C   0  0  0  0  0  0  0  0  0  0  0  0
    3.9727   14.3009    3.8972 N   0  0  0  0  0  0  0  0  0  0  0  0
    6.6309   17.5471    1.8792 N   0  0  0  0  0  0  0  0  0  0  0  0
    5.2864   15.9074    2.8778 N   0  0  0  0  0  0  0  0  0  0  0  0
    4.7295   16.0937    5.1573 N   0  0  0  0  0  0  0  0  0  0  0  0
    6.8769   19.6182    5.4433 N   0  0  0  0  0  0  0  0  0  0  0  0
    6.2128   19.0987    6.5652 C   0  0  0  0  0  0  0  0  0  0  0  0
    5.4731   17.8981    6.4560 N   0  0  0  0  0  0  0  0  0  0  0  0
    5.4305   17.2492    5.2723 C   0  0  0  0  0  0  0  0  0  0  0  0
    6.0963   17.7476    4.1478 C   0  0  0  0  0  0  0  0  0  0  0  0
    6.8260   18.9332    4.2131 C   0  0  0  0  0  0  0  0  0  0  0  0
  1  3  1  0  0  0  0
  1  5  1  0  0  0  0
  1  6  2  0  0  0  0
  2  5  2  0  0  0  0
  2 11  1  0  0  0  0
  2  4  1  0  0  0  0
  6 10  1  0  0  0  0
  7  8  2  0  0  0  0
  7 12  1  0  0  0  0
  8  9  1  0  0  0  0
  9 10  2  0  0  0  0
 10 11  1  0  0  0  0
 11 12  2  0  0  0  0
M  END
>  <CHROM.1>
5.66814931,17.21291510,4.39347576,2.27971310,-0.95750403,-2.01321909

>  <Name>
ligand

>  <RI>
0

>  <Rbt.Current_Directory>
/home/itssahil/PROJECTS/Mol_Feturizer/Test_systems_manuscript/rnas/4lx5

>  <Rbt.Executable>
rbdock ($Id: //depot/dev/client3/rdock/2013.1/src/exe/rbdock.cxx#4 $)

>  <Rbt.Library>
libRbt.so (2013.1, Build901 2013/11/27)

>  <Rbt.Parameter_File>
/export/apps/rDock/src/rDock_2013.1_src/data/scripts/dock_solv.prm

>  <Rbt.Receptor>
prm/pocket_docking_5.prm

>  <SCORE>
-15.0351

>  <SCORE.INTER>
-15.0351

>  <SCORE.INTER.CONST>
1

>  <SCORE.INTER.POLAR>
0

>  <SCORE.INTER.ROT>
0

>  <SCORE.INTER.SOLV>
15.4169

>  <SCORE.INTER.VDW>
-18.7624

>  <SCORE.INTER.norm>
-1.25293

>  <SCORE.INTRA>
0

>  <SCORE.INTRA.DIHEDRAL>
0

>  <SCORE.INTRA.DIHEDRAL.0>
0

>  <SCORE.INTRA.POLAR>
0

>  <SCORE.INTRA.POLAR.0>
0

>  <SCORE.INTRA.REPUL>
0

>  <SCORE.INTRA.REPUL.0>
0

>  <SCORE.INTRA.SOLV>
0

>  <SCORE.INTRA.SOLV.lig_0>
-48.1583

>  <SCORE.INTRA.VDW>
0

>  <SCORE.INTRA.VDW.0>
0

>  <SCORE.INTRA.norm>
0

>  <SCORE.RESTR>
0

>  <SCORE.RESTR.CAVITY>
0

>  <SCORE.RESTR.norm>
0

>  <SCORE.SYSTEM>
0

>  <SCORE.SYSTEM.CONST>
0

>  <SCORE.SYSTEM.DIHEDRAL>
0

>  <SCORE.SYSTEM.SOLV>
0

>  <SCORE.SYSTEM.norm>
0

>  <SCORE.heavy>
12

>  <SCORE.norm>
-1.25293

>  <RMSD>
3.055

$$$$
ligand
 OpenBabel02271912143D
libRbt.so/2013.1/901 2013/11/27
 12 13  0  0  0  0  0  0  0  0999 V2000
    4.6695   15.4411    3.9864 C   0  0  0  0  0  0  0  0  0  0  0  0
    6.0050   17.0424    2.9437 C   0  0  0  0  0  0  0  0  0  0  0  0
    3.9918   14.2991    3.9129 N   0  0  0  0  0  0  0  0  0  0  0  0
    6.6311   17.5487    1.8757 N   0  0  0  0  0  0  0  0  0  0  0  0
    5.2961   15.9072    2.8840 N   0  0  0  0  0  0  0  0  0  0  0  0
    4.7434   16.1004    5.1639 N   0  0  0  0  0  0  0  0  0  0  0  0
    6.8758   19.6355    5.4307 N   0  0  0  0  0  0  0  0  0  0  0  0
    6.2164   19.1177    6.5562 C   0  0  0  0  0  0  0  0  0  0  0  0
    5.4818   17.9134    6.4535 N   0  0  0  0  0  0  0  0  0  0  0  0
    5.4395   17.2595    5.2726 C   0  0  0  0  0  0  0  0  0  0  0  0
    6.1006   17.7562    4.1446 C   0  0  0  0  0  0  0  0  0  0  0  0
    6.8252   18.9452    4.2034 C   0  0  0  0  0  0  0  0  0  0  0  0
  1  3  1  0  0  0  0
  1  5  1  0  0  0  0
  1  6  2  0  0  0  0
  2  5  2  0  0  0  0
  2 11  1  0  0  0  0
  2  4  1  0  0  0  0
  6 10  1  0  0  0  0
  7  8  2  0  0  0  0
  7 12  1  0  0  0  0
  8  9  1  0  0  0  0
  9 10  2  0  0  0  0
 10 11  1  0  0  0  0
 11 12  2  0  0  0  0
M  END
>  <CHROM.1>
5.67537389,17.22060376,4.39345878,2.27985682,-0.96245386,-2.01721456

>  <Name>
ligand

>  <RI>
0

>  <Rbt.Current_Directory>
/home/itssahil/PROJECTS/Mol_Feturizer/Test_systems_manuscript/rnas/4lx5

>  <Rbt.Executable>
rbdock ($Id: //depot/dev/client3/rdock/2013.1/src/exe/rbdock.cxx#4 $)

>  <Rbt.Library>
libRbt.so (2013.1, Build901 2013/11/27)

>  <Rbt.Parameter_File>
/export/apps/rDock/src/rDock_2013.1_src/data/scripts/dock_solv.prm

>  <Rbt.Receptor>
prm/pocket_docking_6.prm

>  <SCORE>
-15.0569

>  <SCORE.INTER>
-15.0569

>  <SCORE.INTER.CONST>
1

>  <SCORE.INTER.POLAR>
0

>  <SCORE.INTER.ROT>
0

>  <SCORE.INTER.SOLV>
15.5303

>  <SCORE.INTER.VDW>
-18.8147

>  <SCORE.INTER.norm>
-1.25474

>  <SCORE.INTRA>
0

>  <SCORE.INTRA.DIHEDRAL>
0

>  <SCORE.INTRA.DIHEDRAL.0>
0

>  <SCORE.INTRA.POLAR>
0

>  <SCORE.INTRA.POLAR.0>
0

>  <SCORE.INTRA.REPUL>
0

>  <SCORE.INTRA.REPUL.0>
0

>  <SCORE.INTRA.SOLV>
0

>  <SCORE.INTRA.SOLV.lig_0>
-48.1583

>  <SCORE.INTRA.VDW>
0

>  <SCORE.INTRA.VDW.0>
0

>  <SCORE.INTRA.norm>
0

>  <SCORE.RESTR>
0

>  <SCORE.RESTR.CAVITY>
0

>  <SCORE.RESTR.norm>
0

>  <SCORE.SYSTEM>
0

>  <SCORE.SYSTEM.CONST>
0

>  <SCORE.SYSTEM.DIHEDRAL>
0

>  <SCORE.SYSTEM.SOLV>
0

>  <SCORE.SYSTEM.norm>
0

>  <SCORE.heavy>
12

>  <SCORE.norm>
-1.25474

>  <RMSD>
3.055

$$$$
ligand
 OpenBabel02271912143D
libRbt.so/2013.1/901 2013/11/27
 12 13  0  0  0  0  0  0  0  0999 V2000
    4.6789   15.4663    3.9877 C   0  0  0  0  0  0  0  0  0  0  0  0
    6.0413   17.0568    2.9634 C   0  0  0  0  0  0  0  0  0  0  0  0
    3.9879   14.3331    3.9031 N   0  0  0  0  0  0  0  0  0  0  0  0
    6.6812   17.5611    1.9027 N   0  0  0  0  0  0  0  0  0  0  0  0
    5.3191   15.9307    2.8924 N   0  0  0  0  0  0  0  0  0  0  0  0
    4.7523   16.1184    5.1693 N   0  0  0  0  0  0  0  0  0  0  0  0
    6.9256   19.6256    5.4707 N   0  0  0  0  0  0  0  0  0  0  0  0
    6.2519   19.1100    6.5886 C   0  0  0  0  0  0  0  0  0  0  0  0
    5.5034   17.9153    6.4741 N   0  0  0  0  0  0  0  0  0  0  0  0
    5.4617   17.2683    5.2893 C   0  0  0  0  0  0  0  0  0  0  0  0
    6.1369   17.7629    4.1688 C   0  0  0  0  0  0  0  0  0  0  0  0
    6.8754   18.9427    4.2393 C   0  0  0  0  0  0  0  0  0  0  0  0
  1  3  1  0  0  0  0
  1  5  1  0  0  0  0
  1  6  2  0  0  0  0
  2  5  2  0  0  0  0
  2 11  1  0  0  0  0
  2  4  1  0  0  0  0
  6 10  1  0  0  0  0
  7  8  2  0  0  0  0
  7 12  1  0  0  0  0
  8  9  1  0  0  0  0
  9 10  2  0  0  0  0
 10 11  1  0  0  0  0
 11 12  2  0  0  0  0
M  END
>  <CHROM.1>
5.70339407,17.23123296,4.41167630,2.27768536,-0.94834593,-2.01356599

>  <Name>
ligand

>  <RI>
0

>  <Rbt.Current_Directory>
/home/itssahil/PROJECTS/Mol_Feturizer/Test_systems_manuscript/rnas/4lx5

>  <Rbt.Executable>
rbdock ($Id: //depot/dev/client3/rdock/2013.1/src/exe/rbdock.cxx#4 $)

>  <Rbt.Library>
libRbt.so (2013.1, Build901 2013/11/27)

>  <Rbt.Parameter_File>
/export/apps/rDock/src/rDock_2013.1_src/data/scripts/dock_solv.prm

>  <Rbt.Receptor>
prm/pocket_docking_7.prm

>  <SCORE>
-15.0219

>  <SCORE.INTER>
-15.0219

>  <SCORE.INTER.CONST>
1

>  <SCORE.INTER.POLAR>
0

>  <SCORE.INTER.ROT>
0

>  <SCORE.INTER.SOLV>
15.5258

>  <SCORE.INTER.VDW>
-18.7899

>  <SCORE.INTER.norm>
-1.25183

>  <SCORE.INTRA>
0

>  <SCORE.INTRA.DIHEDRAL>
0

>  <SCORE.INTRA.DIHEDRAL.0>
0

>  <SCORE.INTRA.POLAR>
0

>  <SCORE.INTRA.POLAR.0>
0

>  <SCORE.INTRA.REPUL>
0

>  <SCORE.INTRA.REPUL.0>
0

>  <SCORE.INTRA.SOLV>
0

>  <SCORE.INTRA.SOLV.lig_0>
-48.1583

>  <SCORE.INTRA.VDW>
0

>  <SCORE.INTRA.VDW.0>
0

>  <SCORE.INTRA.norm>
0

>  <SCORE.RESTR>
0

>  <SCORE.RESTR.CAVITY>
0

>  <SCORE.RESTR.norm>
0

>  <SCORE.SYSTEM>
0

>  <SCORE.SYSTEM.CONST>
0

>  <SCORE.SYSTEM.DIHEDRAL>
0

>  <SCORE.SYSTEM.SOLV>
0

>  <SCORE.SYSTEM.norm>
0

>  <SCORE.heavy>
12

>  <SCORE.norm>
-1.25183

>  <RMSD>
3.055

$$$$
ligand
 OpenBabel02271912143D
libRbt.so/2013.1/901 2013/11/27
 12 13  0  0  0  0  0  0  0  0999 V2000
    4.4688   15.3423    3.8577 C   0  0  0  0  0  0  0  0  0  0  0  0
    5.7319   17.0222    2.8490 C   0  0  0  0  0  0  0  0  0  0  0  0
    3.7858   14.2066    3.7452 N   0  0  0  0  0  0  0  0  0  0  0  0
    6.2839   17.6096    1.7817 N   0  0  0  0  0  0  0  0  0  0  0  0
    5.0188   15.8922    2.7530 N   0  0  0  0  0  0  0  0  0  0  0  0
    4.6245   15.9116    5.0736 N   0  0  0  0  0  0  0  0  0  0  0  0
    6.7758   19.4242    5.4583 N   0  0  0  0  0  0  0  0  0  0  0  0
    6.1947   18.8210    6.5843 C   0  0  0  0  0  0  0  0  0  0  0  0
    5.4528   17.6252    6.4421 N   0  0  0  0  0  0  0  0  0  0  0  0
    5.3284   17.0617    5.2210 C   0  0  0  0  0  0  0  0  0  0  0  0
    5.9111   17.6441    4.0908 C   0  0  0  0  0  0  0  0  0  0  0  0
    6.6399   18.8280    4.1890 C   0  0  0  0  0  0  0  0  0  0  0  0
  1  3  1  0  0  0  0
  1  5  1  0  0  0  0
  1  6  2  0  0  0  0
  2  5  2  0  0  0  0
  2 11  1  0  0  0  0
  2  4  1  0  0  0  0
  6 10  1  0  0  0  0
  7  8  2  0  0  0  0
  7 12  1  0  0  0  0
  8  9  1  0  0  0  0
  9 10  2  0  0  0  0
 10 11  1  0  0  0  0
 11 12  2  0  0  0  0
M  END
>  <CHROM.1>
5.50312217,17.08983581,4.32730195,2.39404554,-0.98777323,-1.84732087

>  <Name>
ligand

>  <RI>
0

>  <Rbt.Current_Directory>
/home/itssahil/PROJECTS/Mol_Feturizer/Test_systems_manuscript/rnas/4lx5

>  <Rbt.Executable>
rbdock ($Id: //depot/dev/client3/rdock/2013.1/src/exe/rbdock.cxx#4 $)

>  <Rbt.Library>
libRbt.so (2013.1, Build901 2013/11/27)

>  <Rbt.Parameter_File>
/export/apps/rDock/src/rDock_2013.1_src/data/scripts/dock_solv.prm

>  <Rbt.Receptor>
prm/pocket_docking_3.prm

>  <SCORE>
-14.4695

>  <SCORE.INTER>
-14.4695

>  <SCORE.INTER.CONST>
1

>  <SCORE.INTER.POLAR>
0

>  <SCORE.INTER.ROT>
0

>  <SCORE.INTER.SOLV>
14.5451

>  <SCORE.INTER.VDW>
-18.0947

>  <SCORE.INTER.norm>
-1.20579

>  <SCORE.INTRA>
0

>  <SCORE.INTRA.DIHEDRAL>
0

>  <SCORE.INTRA.DIHEDRAL.0>
0

>  <SCORE.INTRA.POLAR>
0

>  <SCORE.INTRA.POLAR.0>
0

>  <SCORE.INTRA.REPUL>
0

>  <SCORE.INTRA.REPUL.0>
0

>  <SCORE.INTRA.SOLV>
0

>  <SCORE.INTRA.SOLV.lig_0>
-48.1583

>  <SCORE.INTRA.VDW>
0

>  <SCORE.INTRA.VDW.0>
0

>  <SCORE.INTRA.norm>
0

>  <SCORE.RESTR>
0

>  <SCORE.RESTR.CAVITY>
0

>  <SCORE.RESTR.norm>
0

>  <SCORE.SYSTEM>
0

>  <SCORE.SYSTEM.CONST>
0

>  <SCORE.SYSTEM.DIHEDRAL>
0

>  <SCORE.SYSTEM.SOLV>
0

>  <SCORE.SYSTEM.norm>
0

>  <SCORE.heavy>
12

>  <SCORE.norm>
-1.20579

>  <RMSD>
3.056

$$$$
ligand
 OpenBabel02271912143D
libRbt.so/2013.1/901 2013/11/27
 12 13  0  0  0  0  0  0  0  0999 V2000
    4.6784   15.4538    3.9865 C   0  0  0  0  0  0  0  0  0  0  0  0
    6.0411   17.0463    2.9658 C   0  0  0  0  0  0  0  0  0  0  0  0
    3.9931   14.3171    3.9013 N   0  0  0  0  0  0  0  0  0  0  0  0
    6.6865   17.5494    1.9078 N   0  0  0  0  0  0  0  0  0  0  0  0
    5.3245   15.9167    2.8940 N   0  0  0  0  0  0  0  0  0  0  0  0
    4.7402   16.1108    5.1660 N   0  0  0  0  0  0  0  0  0  0  0  0
    6.8955   19.6290    5.4692 N   0  0  0  0  0  0  0  0  0  0  0  0
    6.2160   19.1147    6.5842 C   0  0  0  0  0  0  0  0  0  0  0  0
    5.4737   17.9162    6.4690 N   0  0  0  0  0  0  0  0  0  0  0  0
    5.4436   17.2643    5.2866 C   0  0  0  0  0  0  0  0  0  0  0  0
    6.1248   17.7576    4.1691 C   0  0  0  0  0  0  0  0  0  0  0  0
    6.8575   18.9410    4.2403 C   0  0  0  0  0  0  0  0  0  0  0  0
  1  3  1  0  0  0  0
  1  5  1  0  0  0  0
  1  6  2  0  0  0  0
  2  5  2  0  0  0  0
  2 11  1  0  0  0  0
  2  4  1  0  0  0  0
  6 10  1  0  0  0  0
  7  8  2  0  0  0  0
  7 12  1  0  0  0  0
  8  9  1  0  0  0  0
  9 10  2  0  0  0  0
 10 11  1  0  0  0  0
 11 12  2  0  0  0  0
M  END
>  <CHROM.1>
5.69187136,17.22494560,4.41087060,2.26304650,-0.94921462,-2.02941865

>  <Name>
ligand

>  <RI>
0

>  <Rbt.Current_Directory>
/home/itssahil/PROJECTS/Mol_Feturizer/Test_systems_manuscript/rnas/4lx5

>  <Rbt.Executable>
rbdock ($Id: //depot/dev/client3/rdock/2013.1/src/exe/rbdock.cxx#4 $)

>  <Rbt.Library>
libRbt.so (2013.1, Build901 2013/11/27)

>  <Rbt.Parameter_File>
/export/apps/rDock/src/rDock_2013.1_src/data/scripts/dock_solv.prm

>  <Rbt.Receptor>
prm/pocket_docking_7.prm

>  <SCORE>
-15.0324

>  <SCORE.INTER>
-15.0324

>  <SCORE.INTER.CONST>
1

>  <SCORE.INTER.POLAR>
0

>  <SCORE.INTER.ROT>
0

>  <SCORE.INTER.SOLV>
15.5642

>  <SCORE.INTER.VDW>
-18.8096

>  <SCORE.INTER.norm>
-1.2527

>  <SCORE.INTRA>
0

>  <SCORE.INTRA.DIHEDRAL>
0

>  <SCORE.INTRA.DIHEDRAL.0>
0

>  <SCORE.INTRA.POLAR>
0

>  <SCORE.INTRA.POLAR.0>
0

>  <SCORE.INTRA.REPUL>
0

>  <SCORE.INTRA.REPUL.0>
0

>  <SCORE.INTRA.SOLV>
0

>  <SCORE.INTRA.SOLV.lig_0>
-48.1583

>  <SCORE.INTRA.VDW>
0

>  <SCORE.INTRA.VDW.0>
0

>  <SCORE.INTRA.norm>
0

>  <SCORE.RESTR>
0

>  <SCORE.RESTR.CAVITY>
0

>  <SCORE.RESTR.norm>
0

>  <SCORE.SYSTEM>
0

>  <SCORE.SYSTEM.CONST>
0

>  <SCORE.SYSTEM.DIHEDRAL>
0

>  <SCORE.SYSTEM.SOLV>
0

>  <SCORE.SYSTEM.norm>
0

>  <SCORE.heavy>
12

>  <SCORE.norm>
-1.2527

>  <RMSD>
3.056

$$$$
ligand
 OpenBabel02271912143D
libRbt.so/2013.1/901 2013/11/27
 12 13  0  0  0  0  0  0  0  0999 V2000
    4.5240   15.2966    3.9078 C   0  0  0  0  0  0  0  0  0  0  0  0
    5.7747   16.9393    2.8251 C   0  0  0  0  0  0  0  0  0  0  0  0
    3.8408   14.1573    3.8441 N   0  0  0  0  0  0  0  0  0  0  0  0
    6.3146   17.4877    1.7311 N   0  0  0  0  0  0  0  0  0  0  0  0
    5.0616   15.8062    2.7779 N   0  0  0  0  0  0  0  0  0  0  0  0
    4.6925   15.9098    5.1004 N   0  0  0  0  0  0  0  0  0  0  0  0
    6.8449   19.4351    5.3337 N   0  0  0  0  0  0  0  0  0  0  0  0
    6.2765   18.8730    6.4872 C   0  0  0  0  0  0  0  0  0  0  0  0
    5.5341   17.6724    6.3966 N   0  0  0  0  0  0  0  0  0  0  0  0
    5.3969   17.0648    5.1983 C   0  0  0  0  0  0  0  0  0  0  0  0
    5.9668   17.6060    4.0414 C   0  0  0  0  0  0  0  0  0  0  0  0
    6.6956   18.7930    4.0885 C   0  0  0  0  0  0  0  0  0  0  0  0
  1  3  1  0  0  0  0
  1  5  1  0  0  0  0
  1  6  2  0  0  0  0
  2  5  2  0  0  0  0
  2 11  1  0  0  0  0
  2  4  1  0  0  0  0
  6 10  1  0  0  0  0
  7  8  2  0  0  0  0
  7 12  1  0  0  0  0
  8  9  1  0  0  0  0
  9 10  2  0  0  0  0
 10 11  1  0  0  0  0
 11 12  2  0  0  0  0
M  END
>  <CHROM.1>
5.56192092,17.06052538,4.30228490,2.41270598,-0.99147990,-1.86808945

>  <Name>
ligand

>  <RI>
0

>  <Rbt.Current_Directory>
/home/itssahil/PROJECTS/Mol_Feturizer/Test_systems_manuscript/rnas/4lx5

>  <Rbt.Executable>
rbdock ($Id: //depot/dev/client3/rdock/2013.1/src/exe/rbdock.cxx#4 $)

>  <Rbt.Library>
libRbt.so (2013.1, Build901 2013/11/27)

>  <Rbt.Parameter_File>
/export/apps/rDock/src/rDock_2013.1_src/data/scripts/dock_solv.prm

>  <Rbt.Receptor>
prm/blind_docking_40.prm

>  <SCORE>
-14.5871

>  <SCORE.INTER>
-14.5871

>  <SCORE.INTER.CONST>
1

>  <SCORE.INTER.POLAR>
0

>  <SCORE.INTER.ROT>
0

>  <SCORE.INTER.SOLV>
14.6257

>  <SCORE.INTER.VDW>
-18.2

>  <SCORE.INTER.norm>
-1.2156

>  <SCORE.INTRA>
0

>  <SCORE.INTRA.DIHEDRAL>
0

>  <SCORE.INTRA.DIHEDRAL.0>
0

>  <SCORE.INTRA.POLAR>
0

>  <SCORE.INTRA.POLAR.0>
0

>  <SCORE.INTRA.REPUL>
0

>  <SCORE.INTRA.REPUL.0>
0

>  <SCORE.INTRA.SOLV>
0

>  <SCORE.INTRA.SOLV.lig_0>
-48.1583

>  <SCORE.INTRA.VDW>
0

>  <SCORE.INTRA.VDW.0>
0

>  <SCORE.INTRA.norm>
0

>  <SCORE.RESTR>
0

>  <SCORE.RESTR.CAVITY>
0

>  <SCORE.RESTR.norm>
0

>  <SCORE.SYSTEM>
0

>  <SCORE.SYSTEM.CONST>
0

>  <SCORE.SYSTEM.DIHEDRAL>
0

>  <SCORE.SYSTEM.SOLV>
0

>  <SCORE.SYSTEM.norm>
0

>  <SCORE.heavy>
12

>  <SCORE.norm>
-1.2156

>  <RMSD>
3.057

$$$$
ligand
 OpenBabel02271912143D
libRbt.so/2013.1/901 2013/11/27
 12 13  0  0  0  0  0  0  0  0999 V2000
    4.6976   15.4290    3.9975 C   0  0  0  0  0  0  0  0  0  0  0  0
    6.0448   17.0297    2.9690 C   0  0  0  0  0  0  0  0  0  0  0  0
    4.0236   14.2852    3.9180 N   0  0  0  0  0  0  0  0  0  0  0  0
    6.6856   17.5337    1.9086 N   0  0  0  0  0  0  0  0  0  0  0  0
    5.3395   15.8927    2.9029 N   0  0  0  0  0  0  0  0  0  0  0  0
    4.7524   16.0927    5.1736 N   0  0  0  0  0  0  0  0  0  0  0  0
    6.8726   19.6337    5.4593 N   0  0  0  0  0  0  0  0  0  0  0  0
    6.1977   19.1184    6.5768 C   0  0  0  0  0  0  0  0  0  0  0  0
    5.4674   17.9120    6.4675 N   0  0  0  0  0  0  0  0  0  0  0  0
    5.4443   17.2538    5.2884 C   0  0  0  0  0  0  0  0  0  0  0  0
    6.1209   17.7480    4.1686 C   0  0  0  0  0  0  0  0  0  0  0  0
    6.8418   18.9389    4.2339 C   0  0  0  0  0  0  0  0  0  0  0  0
  1  3  1  0  0  0  0
  1  5  1  0  0  0  0
  1  6  2  0  0  0  0
  2  5  2  0  0  0  0
  2 11  1  0  0  0  0
  2  4  1  0  0  0  0
  6 10  1  0  0  0  0
  7  8  2  0  0  0  0
  7 12  1  0  0  0  0
  8  9  1  0  0  0  0
  9 10  2  0  0  0  0
 10 11  1  0  0  0  0
 11 12  2  0  0  0  0
M  END
>  <CHROM.1>
5.69324795,17.21233459,4.41303240,2.25478901,-0.95791650,-2.04133146

>  <Name>
ligand

>  <RI>
0

>  <Rbt.Current_Directory>
/home/itssahil/PROJECTS/Mol_Feturizer/Test_systems_manuscript/rnas/4lx5

>  <Rbt.Executable>
rbdock ($Id: //depot/dev/client3/rdock/2013.1/src/exe/rbdock.cxx#4 $)

>  <Rbt.Library>
libRbt.so (2013.1, Build901 2013/11/27)

>  <Rbt.Parameter_File>
/export/apps/rDock/src/rDock_2013.1_src/data/scripts/dock_solv.prm

>  <Rbt.Receptor>
prm/pocket_docking_7.prm

>  <SCORE>
-15.0227

>  <SCORE.INTER>
-15.0227

>  <SCORE.INTER.CONST>
1

>  <SCORE.INTER.POLAR>
0

>  <SCORE.INTER.ROT>
0

>  <SCORE.INTER.SOLV>
15.7436

>  <SCORE.INTER.VDW>
-18.863

>  <SCORE.INTER.norm>
-1.25189

>  <SCORE.INTRA>
0

>  <SCORE.INTRA.DIHEDRAL>
0

>  <SCORE.INTRA.DIHEDRAL.0>
0

>  <SCORE.INTRA.POLAR>
0

>  <SCORE.INTRA.POLAR.0>
0

>  <SCORE.INTRA.REPUL>
0

>  <SCORE.INTRA.REPUL.0>
0

>  <SCORE.INTRA.SOLV>
0

>  <SCORE.INTRA.SOLV.lig_0>
-48.1583

>  <SCORE.INTRA.VDW>
0

>  <SCORE.INTRA.VDW.0>
0

>  <SCORE.INTRA.norm>
0

>  <SCORE.RESTR>
0

>  <SCORE.RESTR.CAVITY>
0

>  <SCORE.RESTR.norm>
0

>  <SCORE.SYSTEM>
0

>  <SCORE.SYSTEM.CONST>
0

>  <SCORE.SYSTEM.DIHEDRAL>
0

>  <SCORE.SYSTEM.SOLV>
0

>  <SCORE.SYSTEM.norm>
0

>  <SCORE.heavy>
12

>  <SCORE.norm>
-1.25189

>  <RMSD>
3.058

$$$$
ligand
 OpenBabel02271912143D
libRbt.so/2013.1/901 2013/11/27
 12 13  0  0  0  0  0  0  0  0999 V2000
    4.6586   15.4436    3.9933 C   0  0  0  0  0  0  0  0  0  0  0  0
    6.0001   17.0402    2.9510 C   0  0  0  0  0  0  0  0  0  0  0  0
    3.9776   14.3036    3.9197 N   0  0  0  0  0  0  0  0  0  0  0  0
    6.6289   17.5440    1.8834 N   0  0  0  0  0  0  0  0  0  0  0  0
    5.2879   15.9071    2.8913 N   0  0  0  0  0  0  0  0  0  0  0  0
    4.7331   16.1035    5.1704 N   0  0  0  0  0  0  0  0  0  0  0  0
    6.8758   19.6323    5.4374 N   0  0  0  0  0  0  0  0  0  0  0  0
    6.2136   19.1173    6.5624 C   0  0  0  0  0  0  0  0  0  0  0  0
    5.4755   17.9151    6.4597 N   0  0  0  0  0  0  0  0  0  0  0  0
    5.4326   17.2605    5.2792 C   0  0  0  0  0  0  0  0  0  0  0  0
    6.0965   17.7545    4.1516 C   0  0  0  0  0  0  0  0  0  0  0  0
    6.8245   18.9414    4.2105 C   0  0  0  0  0  0  0  0  0  0  0  0
  1  3  1  0  0  0  0
  1  5  1  0  0  0  0
  1  6  2  0  0  0  0
  2  5  2  0  0  0  0
  2 11  1  0  0  0  0
  2  4  1  0  0  0  0
  6 10  1  0  0  0  0
  7  8  2  0  0  0  0
  7 12  1  0  0  0  0
  8  9  1  0  0  0  0
  9 10  2  0  0  0  0
 10 11  1  0  0  0  0
 11 12  2  0  0  0  0
M  END
>  <CHROM.1>
5.66936765,17.22037970,4.40029246,2.28031476,-0.95925423,-2.01747550

>  <Name>
ligand

>  <RI>
0

>  <Rbt.Current_Directory>
/home/itssahil/PROJECTS/Mol_Feturizer/Test_systems_manuscript/rnas/4lx5

>  <Rbt.Executable>
rbdock ($Id: //depot/dev/client3/rdock/2013.1/src/exe/rbdock.cxx#4 $)

>  <Rbt.Library>
libRbt.so (2013.1, Build901 2013/11/27)

>  <Rbt.Parameter_File>
/export/apps/rDock/src/rDock_2013.1_src/data/scripts/dock_solv.prm

>  <Rbt.Receptor>
prm/pocket_docking_7.prm

>  <SCORE>
-15.0516

>  <SCORE.INTER>
-15.0516

>  <SCORE.INTER.CONST>
1

>  <SCORE.INTER.POLAR>
0

>  <SCORE.INTER.ROT>
0

>  <SCORE.INTER.SOLV>
15.4533

>  <SCORE.INTER.VDW>
-18.7855

>  <SCORE.INTER.norm>
-1.2543

>  <SCORE.INTRA>
0

>  <SCORE.INTRA.DIHEDRAL>
0

>  <SCORE.INTRA.DIHEDRAL.0>
0

>  <SCORE.INTRA.POLAR>
0

>  <SCORE.INTRA.POLAR.0>
0

>  <SCORE.INTRA.REPUL>
0

>  <SCORE.INTRA.REPUL.0>
0

>  <SCORE.INTRA.SOLV>
0

>  <SCORE.INTRA.SOLV.lig_0>
-48.1583

>  <SCORE.INTRA.VDW>
0

>  <SCORE.INTRA.VDW.0>
0

>  <SCORE.INTRA.norm>
0

>  <SCORE.RESTR>
0

>  <SCORE.RESTR.CAVITY>
0

>  <SCORE.RESTR.norm>
0

>  <SCORE.SYSTEM>
0

>  <SCORE.SYSTEM.CONST>
0

>  <SCORE.SYSTEM.DIHEDRAL>
0

>  <SCORE.SYSTEM.SOLV>
0

>  <SCORE.SYSTEM.norm>
0

>  <SCORE.heavy>
12

>  <SCORE.norm>
-1.2543

>  <RMSD>
3.058

$$$$
ligand
 OpenBabel02271912143D
libRbt.so/2013.1/901 2013/11/27
 12 13  0  0  0  0  0  0  0  0999 V2000
    4.2305   15.6008    3.8365 C   0  0  0  0  0  0  0  0  0  0  0  0
    5.7147   17.0338    2.7509 C   0  0  0  0  0  0  0  0  0  0  0  0
    3.3802   14.5800    3.7741 N   0  0  0  0  0  0  0  0  0  0  0  0
    6.3284   17.4948    1.6554 N   0  0  0  0  0  0  0  0  0  0  0  0
    4.8358   16.0238    2.7052 N   0  0  0  0  0  0  0  0  0  0  0  0
    4.4954   16.1788    5.0292 N   0  0  0  0  0  0  0  0  0  0  0  0
    7.1644   19.3314    5.2582 N   0  0  0  0  0  0  0  0  0  0  0  0
    6.5206   18.8612    6.4132 C   0  0  0  0  0  0  0  0  0  0  0  0
    5.6024   17.7891    6.3241 N   0  0  0  0  0  0  0  0  0  0  0  0
    5.3692   17.2118    5.1257 C   0  0  0  0  0  0  0  0  0  0  0  0
    6.0113   17.6611    3.9672 C   0  0  0  0  0  0  0  0  0  0  0  0
    6.9138   18.7220    4.0128 C   0  0  0  0  0  0  0  0  0  0  0  0
  1  3  1  0  0  0  0
  1  5  1  0  0  0  0
  1  6  2  0  0  0  0
  2  5  2  0  0  0  0
  2 11  1  0  0  0  0
  2  4  1  0  0  0  0
  6 10  1  0  0  0  0
  7  8  2  0  0  0  0
  7 12  1  0  0  0  0
  8  9  1  0  0  0  0
  9 10  2  0  0  0  0
 10 11  1  0  0  0  0
 11 12  2  0  0  0  0
M  END
>  <CHROM.1>
5.52834700,17.18376710,4.22902134,2.48564469,-0.84371573,-1.80855790

>  <Name>
ligand

>  <RI>
0

>  <Rbt.Current_Directory>
/home/itssahil/PROJECTS/Mol_Feturizer/Test_systems_manuscript/rnas/4lx5

>  <Rbt.Executable>
rbdock ($Id: //depot/dev/client3/rdock/2013.1/src/exe/rbdock.cxx#4 $)

>  <Rbt.Library>
libRbt.so (2013.1, Build901 2013/11/27)

>  <Rbt.Parameter_File>
/export/apps/rDock/src/rDock_2013.1_src/data/scripts/dock_solv.prm

>  <Rbt.Receptor>
prm/blind_docking_80.prm

>  <SCORE>
-14.0266

>  <SCORE.INTER>
-14.0266

>  <SCORE.INTER.CONST>
1

>  <SCORE.INTER.POLAR>
0

>  <SCORE.INTER.ROT>
0

>  <SCORE.INTER.SOLV>
12.987

>  <SCORE.INTER.VDW>
-17.2801

>  <SCORE.INTER.norm>
-1.16888

>  <SCORE.INTRA>
0

>  <SCORE.INTRA.DIHEDRAL>
0

>  <SCORE.INTRA.DIHEDRAL.0>
0

>  <SCORE.INTRA.POLAR>
0

>  <SCORE.INTRA.POLAR.0>
0

>  <SCORE.INTRA.REPUL>
0

>  <SCORE.INTRA.REPUL.0>
0

>  <SCORE.INTRA.SOLV>
0

>  <SCORE.INTRA.SOLV.lig_0>
-48.1583

>  <SCORE.INTRA.VDW>
0

>  <SCORE.INTRA.VDW.0>
0

>  <SCORE.INTRA.norm>
0

>  <SCORE.RESTR>
0

>  <SCORE.RESTR.CAVITY>
0

>  <SCORE.RESTR.norm>
0

>  <SCORE.SYSTEM>
0

>  <SCORE.SYSTEM.CONST>
0

>  <SCORE.SYSTEM.DIHEDRAL>
0

>  <SCORE.SYSTEM.SOLV>
0

>  <SCORE.SYSTEM.norm>
0

>  <SCORE.heavy>
12

>  <SCORE.norm>
-1.16888

>  <RMSD>
3.059

$$$$
ligand
 OpenBabel02271912143D
libRbt.so/2013.1/901 2013/11/27
 12 13  0  0  0  0  0  0  0  0999 V2000
    4.6496   15.4524    3.9929 C   0  0  0  0  0  0  0  0  0  0  0  0
    5.9950   17.0466    2.9521 C   0  0  0  0  0  0  0  0  0  0  0  0
    3.9647   14.3147    3.9180 N   0  0  0  0  0  0  0  0  0  0  0  0
    6.6242   17.5503    1.8847 N   0  0  0  0  0  0  0  0  0  0  0  0
    5.2790   15.9159    2.8910 N   0  0  0  0  0  0  0  0  0  0  0  0
    4.7276   16.1098    5.1712 N   0  0  0  0  0  0  0  0  0  0  0  0
    6.8819   19.6312    5.4423 N   0  0  0  0  0  0  0  0  0  0  0  0
    6.2194   19.1162    6.5671 C   0  0  0  0  0  0  0  0  0  0  0  0
    5.4773   17.9166    6.4630 N   0  0  0  0  0  0  0  0  0  0  0  0
    5.4309   17.2644    5.2813 C   0  0  0  0  0  0  0  0  0  0  0  0
    6.0951   17.7583    4.1539 C   0  0  0  0  0  0  0  0  0  0  0  0
    6.8270   18.9428    4.2141 C   0  0  0  0  0  0  0  0  0  0  0  0
  1  3  1  0  0  0  0
  1  5  1  0  0  0  0
  1  6  2  0  0  0  0
  2  5  2  0  0  0  0
  2 11  1  0  0  0  0
  2  4  1  0  0  0  0
  6 10  1  0  0  0  0
  7  8  2  0  0  0  0
  7 12  1  0  0  0  0
  8  9  1  0  0  0  0
  9 10  2  0  0  0  0
 10 11  1  0  0  0  0
 11 12  2  0  0  0  0
M  END
>  <CHROM.1>
5.66650868,17.22513263,4.40207873,2.28454320,-0.95683917,-2.01214408

>  <Name>
ligand

>  <RI>
0

>  <Rbt.Current_Directory>
/home/itssahil/PROJECTS/Mol_Feturizer/Test_systems_manuscript/rnas/4lx5

>  <Rbt.Executable>
rbdock ($Id: //depot/dev/client3/rdock/2013.1/src/exe/rbdock.cxx#4 $)

>  <Rbt.Library>
libRbt.so (2013.1, Build901 2013/11/27)

>  <Rbt.Parameter_File>
/export/apps/rDock/src/rDock_2013.1_src/data/scripts/dock_solv.prm

>  <Rbt.Receptor>
prm/pocket_docking_7.prm

>  <SCORE>
-15.0484

>  <SCORE.INTER>
-15.0484

>  <SCORE.INTER.CONST>
1

>  <SCORE.INTER.POLAR>
0

>  <SCORE.INTER.ROT>
0

>  <SCORE.INTER.SOLV>
15.3825

>  <SCORE.INTER.VDW>
-18.7598

>  <SCORE.INTER.norm>
-1.25403

>  <SCORE.INTRA>
0

>  <SCORE.INTRA.DIHEDRAL>
0

>  <SCORE.INTRA.DIHEDRAL.0>
0

>  <SCORE.INTRA.POLAR>
0

>  <SCORE.INTRA.POLAR.0>
0

>  <SCORE.INTRA.REPUL>
0

>  <SCORE.INTRA.REPUL.0>
0

>  <SCORE.INTRA.SOLV>
0

>  <SCORE.INTRA.SOLV.lig_0>
-48.1583

>  <SCORE.INTRA.VDW>
0

>  <SCORE.INTRA.VDW.0>
0

>  <SCORE.INTRA.norm>
0

>  <SCORE.RESTR>
0

>  <SCORE.RESTR.CAVITY>
0

>  <SCORE.RESTR.norm>
0

>  <SCORE.SYSTEM>
0

>  <SCORE.SYSTEM.CONST>
0

>  <SCORE.SYSTEM.DIHEDRAL>
0

>  <SCORE.SYSTEM.SOLV>
0

>  <SCORE.SYSTEM.norm>
0

>  <SCORE.heavy>
12

>  <SCORE.norm>
-1.25403

>  <RMSD>
3.059

$$$$
ligand
 OpenBabel02271912143D
libRbt.so/2013.1/901 2013/11/27
 12 13  0  0  0  0  0  0  0  0999 V2000
    4.6671   15.4282    3.9806 C   0  0  0  0  0  0  0  0  0  0  0  0
    6.0532   17.0197    2.9903 C   0  0  0  0  0  0  0  0  0  0  0  0
    3.9812   14.2932    3.8796 N   0  0  0  0  0  0  0  0  0  0  0  0
    6.7207   17.5234    1.9464 N   0  0  0  0  0  0  0  0  0  0  0  0
    5.3358   15.8918    2.9021 N   0  0  0  0  0  0  0  0  0  0  0  0
    4.7068   16.0830    5.1623 N   0  0  0  0  0  0  0  0  0  0  0  0
    6.8630   19.5960    5.5152 N   0  0  0  0  0  0  0  0  0  0  0  0
    6.1602   19.0810    6.6155 C   0  0  0  0  0  0  0  0  0  0  0  0
    5.4179   17.8843    6.4832 N   0  0  0  0  0  0  0  0  0  0  0  0
    5.4100   17.2347    5.2992 C   0  0  0  0  0  0  0  0  0  0  0  0
    6.1144   17.7286    4.1964 C   0  0  0  0  0  0  0  0  0  0  0  0
    6.8480   18.9103    4.2844 C   0  0  0  0  0  0  0  0  0  0  0  0
  1  3  1  0  0  0  0
  1  5  1  0  0  0  0
  1  6  2  0  0  0  0
  2  5  2  0  0  0  0
  2 11  1  0  0  0  0
  2  4  1  0  0  0  0
  6 10  1  0  0  0  0
  7  8  2  0  0  0  0
  7 12  1  0  0  0  0
  8  9  1  0  0  0  0
  9 10  2  0  0  0  0
 10 11  1  0  0  0  0
 11 12  2  0  0  0  0
M  END
>  <CHROM.1>
5.67561429,17.19645383,4.42849280,2.23433969,-0.93829169,-2.05078967

>  <Name>
ligand

>  <RI>
0

>  <Rbt.Current_Directory>
/home/itssahil/PROJECTS/Mol_Feturizer/Test_systems_manuscript/rnas/4lx5

>  <Rbt.Executable>
rbdock ($Id: //depot/dev/client3/rdock/2013.1/src/exe/rbdock.cxx#4 $)

>  <Rbt.Library>
libRbt.so (2013.1, Build901 2013/11/27)

>  <Rbt.Parameter_File>
/export/apps/rDock/src/rDock_2013.1_src/data/scripts/dock_solv.prm

>  <Rbt.Receptor>
prm/blind_docking_100.prm

>  <SCORE>
-14.9889

>  <SCORE.INTER>
-14.9889

>  <SCORE.INTER.CONST>
1

>  <SCORE.INTER.POLAR>
0

>  <SCORE.INTER.ROT>
0

>  <SCORE.INTER.SOLV>
15.5212

>  <SCORE.INTER.VDW>
-18.7663

>  <SCORE.INTER.norm>
-1.24908

>  <SCORE.INTRA>
0

>  <SCORE.INTRA.DIHEDRAL>
0

>  <SCORE.INTRA.DIHEDRAL.0>
0

>  <SCORE.INTRA.POLAR>
0

>  <SCORE.INTRA.POLAR.0>
0

>  <SCORE.INTRA.REPUL>
0

>  <SCORE.INTRA.REPUL.0>
0

>  <SCORE.INTRA.SOLV>
0

>  <SCORE.INTRA.SOLV.lig_0>
-48.1583

>  <SCORE.INTRA.VDW>
0

>  <SCORE.INTRA.VDW.0>
0

>  <SCORE.INTRA.norm>
0

>  <SCORE.RESTR>
0

>  <SCORE.RESTR.CAVITY>
0

>  <SCORE.RESTR.norm>
0

>  <SCORE.SYSTEM>
0

>  <SCORE.SYSTEM.CONST>
0

>  <SCORE.SYSTEM.DIHEDRAL>
0

>  <SCORE.SYSTEM.SOLV>
0

>  <SCORE.SYSTEM.norm>
0

>  <SCORE.heavy>
12

>  <SCORE.norm>
-1.24908

>  <RMSD>
3.060

$$$$
ligand
 OpenBabel02271912143D
libRbt.so/2013.1/901 2013/11/27
 12 13  0  0  0  0  0  0  0  0999 V2000
    4.6351   15.4297    3.9789 C   0  0  0  0  0  0  0  0  0  0  0  0
    5.9927   17.0275    2.9597 C   0  0  0  0  0  0  0  0  0  0  0  0
    3.9470   14.2949    3.8904 N   0  0  0  0  0  0  0  0  0  0  0  0
    6.6307   17.5375    1.9005 N   0  0  0  0  0  0  0  0  0  0  0  0
    5.2735   15.8998    2.8849 N   0  0  0  0  0  0  0  0  0  0  0  0
    4.7074   16.0775    5.1628 N   0  0  0  0  0  0  0  0  0  0  0  0
    6.8715   19.5894    5.4760 N   0  0  0  0  0  0  0  0  0  0  0  0
    6.1998   19.0678    6.5924 C   0  0  0  0  0  0  0  0  0  0  0  0
    5.4544   17.8716    6.4738 N   0  0  0  0  0  0  0  0  0  0  0  0
    5.4138   17.2288    5.2867 C   0  0  0  0  0  0  0  0  0  0  0  0
    6.0871   17.7294    4.1677 C   0  0  0  0  0  0  0  0  0  0  0  0
    6.8225   18.9109    4.2422 C   0  0  0  0  0  0  0  0  0  0  0  0
  1  3  1  0  0  0  0
  1  5  1  0  0  0  0
  1  6  2  0  0  0  0
  2  5  2  0  0  0  0
  2 11  1  0  0  0  0
  2  4  1  0  0  0  0
  6 10  1  0  0  0  0
  7  8  2  0  0  0  0
  7 12  1  0  0  0  0
  8  9  1  0  0  0  0
  9 10  2  0  0  0  0
 10 11  1  0  0  0  0
 11 12  2  0  0  0  0
M  END
>  <CHROM.1>
5.65513701,17.19572130,4.40879077,2.27656853,-0.95098039,-2.01076296

>  <Name>
ligand

>  <RI>
0

>  <Rbt.Current_Directory>
/home/itssahil/PROJECTS/Mol_Feturizer/Test_systems_manuscript/rnas/4lx5

>  <Rbt.Executable>
rbdock ($Id: //depot/dev/client3/rdock/2013.1/src/exe/rbdock.cxx#4 $)

>  <Rbt.Library>
libRbt.so (2013.1, Build901 2013/11/27)

>  <Rbt.Parameter_File>
/export/apps/rDock/src/rDock_2013.1_src/data/scripts/dock_solv.prm

>  <Rbt.Receptor>
prm/pocket_docking_3.prm

>  <SCORE>
-15.0562

>  <SCORE.INTER>
-15.0562

>  <SCORE.INTER.CONST>
1

>  <SCORE.INTER.POLAR>
0

>  <SCORE.INTER.ROT>
0

>  <SCORE.INTER.SOLV>
15.2806

>  <SCORE.INTER.VDW>
-18.731

>  <SCORE.INTER.norm>
-1.25468

>  <SCORE.INTRA>
0

>  <SCORE.INTRA.DIHEDRAL>
0

>  <SCORE.INTRA.DIHEDRAL.0>
0

>  <SCORE.INTRA.POLAR>
0

>  <SCORE.INTRA.POLAR.0>
0

>  <SCORE.INTRA.REPUL>
0

>  <SCORE.INTRA.REPUL.0>
0

>  <SCORE.INTRA.SOLV>
0

>  <SCORE.INTRA.SOLV.lig_0>
-48.1583

>  <SCORE.INTRA.VDW>
0

>  <SCORE.INTRA.VDW.0>
0

>  <SCORE.INTRA.norm>
0

>  <SCORE.RESTR>
0

>  <SCORE.RESTR.CAVITY>
0

>  <SCORE.RESTR.norm>
0

>  <SCORE.SYSTEM>
0

>  <SCORE.SYSTEM.CONST>
0

>  <SCORE.SYSTEM.DIHEDRAL>
0

>  <SCORE.SYSTEM.SOLV>
0

>  <SCORE.SYSTEM.norm>
0

>  <SCORE.heavy>
12

>  <SCORE.norm>
-1.25468

>  <RMSD>
3.060

$$$$
ligand
 OpenBabel02271912143D
libRbt.so/2013.1/901 2013/11/27
 12 13  0  0  0  0  0  0  0  0999 V2000
    4.6371   15.4319    3.9829 C   0  0  0  0  0  0  0  0  0  0  0  0
    5.9961   17.0262    2.9600 C   0  0  0  0  0  0  0  0  0  0  0  0
    3.9483   14.2974    3.8971 N   0  0  0  0  0  0  0  0  0  0  0  0
    6.6347   17.5331    1.8997 N   0  0  0  0  0  0  0  0  0  0  0  0
    5.2761   15.8988    2.8879 N   0  0  0  0  0  0  0  0  0  0  0  0
    4.7096   16.0827    5.1652 N   0  0  0  0  0  0  0  0  0  0  0  0
    6.8761   19.5938    5.4701 N   0  0  0  0  0  0  0  0  0  0  0  0
    6.2037   19.0755    6.5876 C   0  0  0  0  0  0  0  0  0  0  0  0
    5.4575   17.8795    6.4719 N   0  0  0  0  0  0  0  0  0  0  0  0
    5.4168   17.2338    5.2864 C   0  0  0  0  0  0  0  0  0  0  0  0
    6.0907   17.7311    4.1663 C   0  0  0  0  0  0  0  0  0  0  0  0
    6.8269   18.9123    4.2379 C   0  0  0  0  0  0  0  0  0  0  0  0
  1  3  1  0  0  0  0
  1  5  1  0  0  0  0
  1  6  2  0  0  0  0
  2  5  2  0  0  0  0
  2 11  1  0  0  0  0
  2  4  1  0  0  0  0
  6 10  1  0  0  0  0
  7  8  2  0  0  0  0
  7 12  1  0  0  0  0
  8  9  1  0  0  0  0
  9 10  2  0  0  0  0
 10 11  1  0  0  0  0
 11 12  2  0  0  0  0
M  END
>  <CHROM.1>
5.65829673,17.19828836,4.40860869,2.27670683,-0.95026275,-2.01316888

>  <Name>
ligand

>  <RI>
0

>  <Rbt.Current_Directory>
/home/itssahil/PROJECTS/Mol_Feturizer/Test_systems_manuscript/rnas/4lx5

>  <Rbt.Executable>
rbdock ($Id: //depot/dev/client3/rdock/2013.1/src/exe/rbdock.cxx#4 $)

>  <Rbt.Library>
libRbt.so (2013.1, Build901 2013/11/27)

>  <Rbt.Parameter_File>
/export/apps/rDock/src/rDock_2013.1_src/data/scripts/dock_solv.prm

>  <Rbt.Receptor>
prm/pocket_docking_6.prm

>  <SCORE>
-15.0546

>  <SCORE.INTER>
-15.0546

>  <SCORE.INTER.CONST>
1

>  <SCORE.INTER.POLAR>
0

>  <SCORE.INTER.ROT>
0

>  <SCORE.INTER.SOLV>
15.2928

>  <SCORE.INTER.VDW>
-18.734

>  <SCORE.INTER.norm>
-1.25455

>  <SCORE.INTRA>
0

>  <SCORE.INTRA.DIHEDRAL>
0

>  <SCORE.INTRA.DIHEDRAL.0>
0

>  <SCORE.INTRA.POLAR>
0

>  <SCORE.INTRA.POLAR.0>
0

>  <SCORE.INTRA.REPUL>
0

>  <SCORE.INTRA.REPUL.0>
0

>  <SCORE.INTRA.SOLV>
0

>  <SCORE.INTRA.SOLV.lig_0>
-48.1583

>  <SCORE.INTRA.VDW>
0

>  <SCORE.INTRA.VDW.0>
0

>  <SCORE.INTRA.norm>
0

>  <SCORE.RESTR>
0

>  <SCORE.RESTR.CAVITY>
0

>  <SCORE.RESTR.norm>
0

>  <SCORE.SYSTEM>
0

>  <SCORE.SYSTEM.CONST>
0

>  <SCORE.SYSTEM.DIHEDRAL>
0

>  <SCORE.SYSTEM.SOLV>
0

>  <SCORE.SYSTEM.norm>
0

>  <SCORE.heavy>
12

>  <SCORE.norm>
-1.25455

>  <RMSD>
3.060

$$$$
ligand
 OpenBabel02271912143D
libRbt.so/2013.1/901 2013/11/27
 12 13  0  0  0  0  0  0  0  0999 V2000
    4.5338   15.3054    3.9082 C   0  0  0  0  0  0  0  0  0  0  0  0
    5.8137   16.9564    2.8733 C   0  0  0  0  0  0  0  0  0  0  0  0
    3.8546   14.1655    3.8173 N   0  0  0  0  0  0  0  0  0  0  0  0
    6.3852   17.5122    1.7993 N   0  0  0  0  0  0  0  0  0  0  0  0
    5.1041   15.8226    2.7980 N   0  0  0  0  0  0  0  0  0  0  0  0
    4.6655   15.9116    5.1090 N   0  0  0  0  0  0  0  0  0  0  0  0
    6.8042   19.4385    5.4278 N   0  0  0  0  0  0  0  0  0  0  0  0
    6.2025   18.8686    6.5603 C   0  0  0  0  0  0  0  0  0  0  0  0
    5.4650   17.6676    6.4403 N   0  0  0  0  0  0  0  0  0  0  0  0
    5.3648   17.0670    5.2348 C   0  0  0  0  0  0  0  0  0  0  0  0
    5.9682   17.6160    4.0988 C   0  0  0  0  0  0  0  0  0  0  0  0
    6.6933   18.8037    4.1748 C   0  0  0  0  0  0  0  0  0  0  0  0
  1  3  1  0  0  0  0
  1  5  1  0  0  0  0
  1  6  2  0  0  0  0
  2  5  2  0  0  0  0
  2 11  1  0  0  0  0
  2  4  1  0  0  0  0
  6 10  1  0  0  0  0
  7  8  2  0  0  0  0
  7 12  1  0  0  0  0
  8  9  1  0  0  0  0
  9 10  2  0  0  0  0
 10 11  1  0  0  0  0
 11 12  2  0  0  0  0
M  END
>  <CHROM.1>
5.55654878,17.06837629,4.34417068,2.36016150,-0.98360114,-1.90593832

>  <Name>
ligand

>  <RI>
0

>  <Rbt.Current_Directory>
/home/itssahil/PROJECTS/Mol_Feturizer/Test_systems_manuscript/rnas/4lx5

>  <Rbt.Executable>
rbdock ($Id: //depot/dev/client3/rdock/2013.1/src/exe/rbdock.cxx#4 $)

>  <Rbt.Library>
libRbt.so (2013.1, Build901 2013/11/27)

>  <Rbt.Parameter_File>
/export/apps/rDock/src/rDock_2013.1_src/data/scripts/dock_solv.prm

>  <Rbt.Receptor>
prm/pocket_docking_8.prm

>  <SCORE>
-14.7083

>  <SCORE.INTER>
-14.7083

>  <SCORE.INTER.CONST>
1

>  <SCORE.INTER.POLAR>
0

>  <SCORE.INTER.ROT>
0

>  <SCORE.INTER.SOLV>
14.7101

>  <SCORE.INTER.VDW>
-18.3089

>  <SCORE.INTER.norm>
-1.22569

>  <SCORE.INTRA>
0

>  <SCORE.INTRA.DIHEDRAL>
0

>  <SCORE.INTRA.DIHEDRAL.0>
0

>  <SCORE.INTRA.POLAR>
0

>  <SCORE.INTRA.POLAR.0>
0

>  <SCORE.INTRA.REPUL>
0

>  <SCORE.INTRA.REPUL.0>
0

>  <SCORE.INTRA.SOLV>
0

>  <SCORE.INTRA.SOLV.lig_0>
-48.1583

>  <SCORE.INTRA.VDW>
0

>  <SCORE.INTRA.VDW.0>
0

>  <SCORE.INTRA.norm>
0

>  <SCORE.RESTR>
0

>  <SCORE.RESTR.CAVITY>
0

>  <SCORE.RESTR.norm>
0

>  <SCORE.SYSTEM>
0

>  <SCORE.SYSTEM.CONST>
0

>  <SCORE.SYSTEM.DIHEDRAL>
0

>  <SCORE.SYSTEM.SOLV>
0

>  <SCORE.SYSTEM.norm>
0

>  <SCORE.heavy>
12

>  <SCORE.norm>
-1.22569

>  <RMSD>
3.060

$$$$
ligand
 OpenBabel02271912143D
libRbt.so/2013.1/901 2013/11/27
 12 13  0  0  0  0  0  0  0  0999 V2000
    4.6382   15.4322    3.9860 C   0  0  0  0  0  0  0  0  0  0  0  0
    5.9864   17.0341    2.9607 C   0  0  0  0  0  0  0  0  0  0  0  0
    3.9529   14.2956    3.9005 N   0  0  0  0  0  0  0  0  0  0  0  0
    6.6180   17.5461    1.8987 N   0  0  0  0  0  0  0  0  0  0  0  0
    5.2700   15.9043    2.8891 N   0  0  0  0  0  0  0  0  0  0  0  0
    4.7143   16.0800    5.1697 N   0  0  0  0  0  0  0  0  0  0  0  0
    6.8699   19.5979    5.4735 N   0  0  0  0  0  0  0  0  0  0  0  0
    6.2050   19.0742    6.5929 C   0  0  0  0  0  0  0  0  0  0  0  0
    5.4624   17.8759    6.4776 N   0  0  0  0  0  0  0  0  0  0  0  0
    5.4180   17.2333    5.2905 C   0  0  0  0  0  0  0  0  0  0  0  0
    6.0846   17.7360    4.1685 C   0  0  0  0  0  0  0  0  0  0  0  0
    6.8170   18.9195    4.2397 C   0  0  0  0  0  0  0  0  0  0  0  0
  1  3  1  0  0  0  0
  1  5  1  0  0  0  0
  1  6  2  0  0  0  0
  2  5  2  0  0  0  0
  2 11  1  0  0  0  0
  2  4  1  0  0  0  0
  6 10  1  0  0  0  0
  7  8  2  0  0  0  0
  7 12  1  0  0  0  0
  8  9  1  0  0  0  0
  9 10  2  0  0  0  0
 10 11  1  0  0  0  0
 11 12  2  0  0  0  0
M  END
>  <CHROM.1>
5.65525417,17.20102083,4.41148092,2.28192482,-0.95553955,-2.00617790

>  <Name>
ligand

>  <RI>
0

>  <Rbt.Current_Directory>
/home/itssahil/PROJECTS/Mol_Feturizer/Test_systems_manuscript/rnas/4lx5

>  <Rbt.Executable>
rbdock ($Id: //depot/dev/client3/rdock/2013.1/src/exe/rbdock.cxx#4 $)

>  <Rbt.Library>
libRbt.so (2013.1, Build901 2013/11/27)

>  <Rbt.Parameter_File>
/export/apps/rDock/src/rDock_2013.1_src/data/scripts/dock_solv.prm

>  <Rbt.Receptor>
prm/blind_docking_100.prm

>  <SCORE>
-15.0538

>  <SCORE.INTER>
-15.0538

>  <SCORE.INTER.CONST>
1

>  <SCORE.INTER.POLAR>
0

>  <SCORE.INTER.ROT>
0

>  <SCORE.INTER.SOLV>
15.3044

>  <SCORE.INTER.VDW>
-18.7373

>  <SCORE.INTER.norm>
-1.25448

>  <SCORE.INTRA>
0

>  <SCORE.INTRA.DIHEDRAL>
0

>  <SCORE.INTRA.DIHEDRAL.0>
0

>  <SCORE.INTRA.POLAR>
0

>  <SCORE.INTRA.POLAR.0>
0

>  <SCORE.INTRA.REPUL>
0

>  <SCORE.INTRA.REPUL.0>
0

>  <SCORE.INTRA.SOLV>
0

>  <SCORE.INTRA.SOLV.lig_0>
-48.1583

>  <SCORE.INTRA.VDW>
0

>  <SCORE.INTRA.VDW.0>
0

>  <SCORE.INTRA.norm>
0

>  <SCORE.RESTR>
0

>  <SCORE.RESTR.CAVITY>
0

>  <SCORE.RESTR.norm>
0

>  <SCORE.SYSTEM>
0

>  <SCORE.SYSTEM.CONST>
0

>  <SCORE.SYSTEM.DIHEDRAL>
0

>  <SCORE.SYSTEM.SOLV>
0

>  <SCORE.SYSTEM.norm>
0

>  <SCORE.heavy>
12

>  <SCORE.norm>
-1.25448

>  <RMSD>
3.061

$$$$
ligand
 OpenBabel02271912143D
libRbt.so/2013.1/901 2013/11/27
 12 13  0  0  0  0  0  0  0  0999 V2000
    4.6389   15.4344    3.9860 C   0  0  0  0  0  0  0  0  0  0  0  0
    5.9916   17.0323    2.9603 C   0  0  0  0  0  0  0  0  0  0  0  0
    3.9528   14.2981    3.9016 N   0  0  0  0  0  0  0  0  0  0  0  0
    6.6267   17.5408    1.8987 N   0  0  0  0  0  0  0  0  0  0  0  0
    5.2743   15.9030    2.8897 N   0  0  0  0  0  0  0  0  0  0  0  0
    4.7122   16.0853    5.1682 N   0  0  0  0  0  0  0  0  0  0  0  0
    6.8702   19.6021    5.4686 N   0  0  0  0  0  0  0  0  0  0  0  0
    6.2016   19.0820    6.5875 C   0  0  0  0  0  0  0  0  0  0  0  0
    5.4582   17.8841    6.4733 N   0  0  0  0  0  0  0  0  0  0  0  0
    5.4167   17.2383    5.2879 C   0  0  0  0  0  0  0  0  0  0  0  0
    6.0869   17.7374    4.1664 C   0  0  0  0  0  0  0  0  0  0  0  0
    6.8202   18.9204    4.2365 C   0  0  0  0  0  0  0  0  0  0  0  0
  1  3  1  0  0  0  0
  1  5  1  0  0  0  0
  1  6  2  0  0  0  0
  2  5  2  0  0  0  0
  2 11  1  0  0  0  0
  2  4  1  0  0  0  0
  6 10  1  0  0  0  0
  7  8  2  0  0  0  0
  7 12  1  0  0  0  0
  8  9  1  0  0  0  0
  9 10  2  0  0  0  0
 10 11  1  0  0  0  0
 11 12  2  0  0  0  0
M  END
>  <CHROM.1>
5.65640534,17.20343420,4.40961173,2.27808110,-0.95348764,-2.01203295

>  <Name>
ligand

>  <RI>
0

>  <Rbt.Current_Directory>
/home/itssahil/PROJECTS/Mol_Feturizer/Test_systems_manuscript/rnas/4lx5

>  <Rbt.Executable>
rbdock ($Id: //depot/dev/client3/rdock/2013.1/src/exe/rbdock.cxx#4 $)

>  <Rbt.Library>
libRbt.so (2013.1, Build901 2013/11/27)

>  <Rbt.Parameter_File>
/export/apps/rDock/src/rDock_2013.1_src/data/scripts/dock_solv.prm

>  <Rbt.Receptor>
prm/pocket_docking_5.prm

>  <SCORE>
-15.0532

>  <SCORE.INTER>
-15.0532

>  <SCORE.INTER.CONST>
1

>  <SCORE.INTER.POLAR>
0

>  <SCORE.INTER.ROT>
0

>  <SCORE.INTER.SOLV>
15.3103

>  <SCORE.INTER.VDW>
-18.7389

>  <SCORE.INTER.norm>
-1.25443

>  <SCORE.INTRA>
0

>  <SCORE.INTRA.DIHEDRAL>
0

>  <SCORE.INTRA.DIHEDRAL.0>
0

>  <SCORE.INTRA.POLAR>
0

>  <SCORE.INTRA.POLAR.0>
0

>  <SCORE.INTRA.REPUL>
0

>  <SCORE.INTRA.REPUL.0>
0

>  <SCORE.INTRA.SOLV>
0

>  <SCORE.INTRA.SOLV.lig_0>
-48.1583

>  <SCORE.INTRA.VDW>
0

>  <SCORE.INTRA.VDW.0>
0

>  <SCORE.INTRA.norm>
0

>  <SCORE.RESTR>
0

>  <SCORE.RESTR.CAVITY>
0

>  <SCORE.RESTR.norm>
0

>  <SCORE.SYSTEM>
0

>  <SCORE.SYSTEM.CONST>
0

>  <SCORE.SYSTEM.DIHEDRAL>
0

>  <SCORE.SYSTEM.SOLV>
0

>  <SCORE.SYSTEM.norm>
0

>  <SCORE.heavy>
12

>  <SCORE.norm>
-1.25443

>  <RMSD>
3.061

$$$$
ligand
 OpenBabel02271912143D
libRbt.so/2013.1/901 2013/11/27
 12 13  0  0  0  0  0  0  0  0999 V2000
    4.6388   15.4385    3.9888 C   0  0  0  0  0  0  0  0  0  0  0  0
    5.9937   17.0327    2.9602 C   0  0  0  0  0  0  0  0  0  0  0  0
    3.9516   14.3028    3.9066 N   0  0  0  0  0  0  0  0  0  0  0  0
    6.6299   17.5381    1.8978 N   0  0  0  0  0  0  0  0  0  0  0  0
    5.2753   15.9040    2.8918 N   0  0  0  0  0  0  0  0  0  0  0  0
    4.7121   16.0921    5.1695 N   0  0  0  0  0  0  0  0  0  0  0  0
    6.8736   19.6073    5.4631 N   0  0  0  0  0  0  0  0  0  0  0  0
    6.2038   19.0904    6.5828 C   0  0  0  0  0  0  0  0  0  0  0  0
    5.4593   17.8930    6.4710 N   0  0  0  0  0  0  0  0  0  0  0  0
    5.4177   17.2446    5.2870 C   0  0  0  0  0  0  0  0  0  0  0  0
    6.0891   17.7404    4.1647 C   0  0  0  0  0  0  0  0  0  0  0  0
    6.8236   18.9228    4.2326 C   0  0  0  0  0  0  0  0  0  0  0  0
  1  3  1  0  0  0  0
  1  5  1  0  0  0  0
  1  6  2  0  0  0  0
  2  5  2  0  0  0  0
  2 11  1  0  0  0  0
  2  4  1  0  0  0  0
  6 10  1  0  0  0  0
  7  8  2  0  0  0  0
  7 12  1  0  0  0  0
  8  9  1  0  0  0  0
  9 10  2  0  0  0  0
 10 11  1  0  0  0  0
 11 12  2  0  0  0  0
M  END
>  <CHROM.1>
5.65788583,17.20747355,4.40894118,2.27800136,-0.95230789,-2.01436343

>  <Name>
ligand

>  <RI>
0

>  <Rbt.Current_Directory>
/home/itssahil/PROJECTS/Mol_Feturizer/Test_systems_manuscript/rnas/4lx5

>  <Rbt.Executable>
rbdock ($Id: //depot/dev/client3/rdock/2013.1/src/exe/rbdock.cxx#4 $)

>  <Rbt.Library>
libRbt.so (2013.1, Build901 2013/11/27)

>  <Rbt.Parameter_File>
/export/apps/rDock/src/rDock_2013.1_src/data/scripts/dock_solv.prm

>  <Rbt.Receptor>
prm/pocket_docking_5.prm

>  <SCORE>
-15.0496

>  <SCORE.INTER>
-15.0496

>  <SCORE.INTER.CONST>
1

>  <SCORE.INTER.POLAR>
0

>  <SCORE.INTER.ROT>
0

>  <SCORE.INTER.SOLV>
15.3077

>  <SCORE.INTER.VDW>
-18.7356

>  <SCORE.INTER.norm>
-1.25413

>  <SCORE.INTRA>
0

>  <SCORE.INTRA.DIHEDRAL>
0

>  <SCORE.INTRA.DIHEDRAL.0>
0

>  <SCORE.INTRA.POLAR>
0

>  <SCORE.INTRA.POLAR.0>
0

>  <SCORE.INTRA.REPUL>
0

>  <SCORE.INTRA.REPUL.0>
0

>  <SCORE.INTRA.SOLV>
0

>  <SCORE.INTRA.SOLV.lig_0>
-48.1583

>  <SCORE.INTRA.VDW>
0

>  <SCORE.INTRA.VDW.0>
0

>  <SCORE.INTRA.norm>
0

>  <SCORE.RESTR>
0

>  <SCORE.RESTR.CAVITY>
0

>  <SCORE.RESTR.norm>
0

>  <SCORE.SYSTEM>
0

>  <SCORE.SYSTEM.CONST>
0

>  <SCORE.SYSTEM.DIHEDRAL>
0

>  <SCORE.SYSTEM.SOLV>
0

>  <SCORE.SYSTEM.norm>
0

>  <SCORE.heavy>
12

>  <SCORE.norm>
-1.25413

>  <RMSD>
3.061

$$$$
ligand
 OpenBabel02271912143D
libRbt.so/2013.1/901 2013/11/27
 12 13  0  0  0  0  0  0  0  0999 V2000
    4.6362   15.4394    3.9860 C   0  0  0  0  0  0  0  0  0  0  0  0
    5.9964   17.0299    2.9588 C   0  0  0  0  0  0  0  0  0  0  0  0
    3.9468   14.3051    3.9033 N   0  0  0  0  0  0  0  0  0  0  0  0
    6.6356   17.5333    1.8972 N   0  0  0  0  0  0  0  0  0  0  0  0
    5.2757   15.9027    2.8898 N   0  0  0  0  0  0  0  0  0  0  0  0
    4.7088   16.0936    5.1664 N   0  0  0  0  0  0  0  0  0  0  0  0
    6.8772   19.6044    5.4616 N   0  0  0  0  0  0  0  0  0  0  0  0
    6.2043   19.0897    6.5804 C   0  0  0  0  0  0  0  0  0  0  0  0
    5.4574   17.8938    6.4680 N   0  0  0  0  0  0  0  0  0  0  0  0
    5.4166   17.2446    5.2844 C   0  0  0  0  0  0  0  0  0  0  0  0
    6.0911   17.7383    4.1630 C   0  0  0  0  0  0  0  0  0  0  0  0
    6.8280   18.9192    4.2314 C   0  0  0  0  0  0  0  0  0  0  0  0
  1  3  1  0  0  0  0
  1  5  1  0  0  0  0
  1  6  2  0  0  0  0
  2  5  2  0  0  0  0
  2 11  1  0  0  0  0
  2  4  1  0  0  0  0
  6 10  1  0  0  0  0
  7  8  2  0  0  0  0
  7 12  1  0  0  0  0
  8  9  1  0  0  0  0
  9 10  2  0  0  0  0
 10 11  1  0  0  0  0
 11 12  2  0  0  0  0
M  END
>  <CHROM.1>
5.65832685,17.20643377,4.40678916,2.27674325,-0.94961763,-2.01606353

>  <Name>
ligand

>  <RI>
0

>  <Rbt.Current_Directory>
/home/itssahil/PROJECTS/Mol_Feturizer/Test_systems_manuscript/rnas/4lx5

>  <Rbt.Executable>
rbdock ($Id: //depot/dev/client3/rdock/2013.1/src/exe/rbdock.cxx#4 $)

>  <Rbt.Library>
libRbt.so (2013.1, Build901 2013/11/27)

>  <Rbt.Parameter_File>
/export/apps/rDock/src/rDock_2013.1_src/data/scripts/dock_solv.prm

>  <Rbt.Receptor>
prm/pocket_docking_5.prm

>  <SCORE>
-15.0482

>  <SCORE.INTER>
-15.0482

>  <SCORE.INTER.CONST>
1

>  <SCORE.INTER.POLAR>
0

>  <SCORE.INTER.ROT>
0

>  <SCORE.INTER.SOLV>
15.2912

>  <SCORE.INTER.VDW>
-18.7292

>  <SCORE.INTER.norm>
-1.25402

>  <SCORE.INTRA>
0

>  <SCORE.INTRA.DIHEDRAL>
0

>  <SCORE.INTRA.DIHEDRAL.0>
0

>  <SCORE.INTRA.POLAR>
0

>  <SCORE.INTRA.POLAR.0>
0

>  <SCORE.INTRA.REPUL>
0

>  <SCORE.INTRA.REPUL.0>
0

>  <SCORE.INTRA.SOLV>
0

>  <SCORE.INTRA.SOLV.lig_0>
-48.1583

>  <SCORE.INTRA.VDW>
0

>  <SCORE.INTRA.VDW.0>
0

>  <SCORE.INTRA.norm>
0

>  <SCORE.RESTR>
0

>  <SCORE.RESTR.CAVITY>
0

>  <SCORE.RESTR.norm>
0

>  <SCORE.SYSTEM>
0

>  <SCORE.SYSTEM.CONST>
0

>  <SCORE.SYSTEM.DIHEDRAL>
0

>  <SCORE.SYSTEM.SOLV>
0

>  <SCORE.SYSTEM.norm>
0

>  <SCORE.heavy>
12

>  <SCORE.norm>
-1.25402

>  <RMSD>
3.061

$$$$
ligand
 OpenBabel02271912143D
libRbt.so/2013.1/901 2013/11/27
 12 13  0  0  0  0  0  0  0  0999 V2000
    4.6443   15.4236    3.9851 C   0  0  0  0  0  0  0  0  0  0  0  0
    5.9932   17.0263    2.9619 C   0  0  0  0  0  0  0  0  0  0  0  0
    3.9626   14.2848    3.8995 N   0  0  0  0  0  0  0  0  0  0  0  0
    6.6287   17.5369    1.9016 N   0  0  0  0  0  0  0  0  0  0  0  0
    5.2804   15.8943    2.8901 N   0  0  0  0  0  0  0  0  0  0  0  0
    4.7125   16.0751    5.1673 N   0  0  0  0  0  0  0  0  0  0  0  0
    6.8567   19.6000    5.4715 N   0  0  0  0  0  0  0  0  0  0  0  0
    6.1875   19.0777    6.5891 C   0  0  0  0  0  0  0  0  0  0  0  0
    5.4489   17.8769    6.4736 N   0  0  0  0  0  0  0  0  0  0  0  0
    5.4124   17.2307    5.2882 C   0  0  0  0  0  0  0  0  0  0  0  0
    6.0832   17.7320    4.1681 C   0  0  0  0  0  0  0  0  0  0  0  0
    6.8120   18.9178    4.2395 C   0  0  0  0  0  0  0  0  0  0  0  0
  1  3  1  0  0  0  0
  1  5  1  0  0  0  0
  1  6  2  0  0  0  0
  2  5  2  0  0  0  0
  2 11  1  0  0  0  0
  2  4  1  0  0  0  0
  6 10  1  0  0  0  0
  7  8  2  0  0  0  0
  7 12  1  0  0  0  0
  8  9  1  0  0  0  0
  9 10  2  0  0  0  0
 10 11  1  0  0  0  0
 11 12  2  0  0  0  0
M  END
>  <CHROM.1>
5.65419441,17.19653750,4.41047558,2.27185024,-0.95592196,-2.01736692

>  <Name>
ligand

>  <RI>
0

>  <Rbt.Current_Directory>
/home/itssahil/PROJECTS/Mol_Feturizer/Test_systems_manuscript/rnas/4lx5

>  <Rbt.Executable>
rbdock ($Id: //depot/dev/client3/rdock/2013.1/src/exe/rbdock.cxx#4 $)

>  <Rbt.Library>
libRbt.so (2013.1, Build901 2013/11/27)

>  <Rbt.Parameter_File>
/export/apps/rDock/src/rDock_2013.1_src/data/scripts/dock_solv.prm

>  <Rbt.Receptor>
prm/pocket_docking_6.prm

>  <SCORE>
-15.0564

>  <SCORE.INTER>
-15.0564

>  <SCORE.INTER.CONST>
1

>  <SCORE.INTER.POLAR>
0

>  <SCORE.INTER.ROT>
0

>  <SCORE.INTER.SOLV>
15.3559

>  <SCORE.INTER.VDW>
-18.7563

>  <SCORE.INTER.norm>
-1.2547

>  <SCORE.INTRA>
0

>  <SCORE.INTRA.DIHEDRAL>
0

>  <SCORE.INTRA.DIHEDRAL.0>
0

>  <SCORE.INTRA.POLAR>
0

>  <SCORE.INTRA.POLAR.0>
0

>  <SCORE.INTRA.REPUL>
0

>  <SCORE.INTRA.REPUL.0>
0

>  <SCORE.INTRA.SOLV>
0

>  <SCORE.INTRA.SOLV.lig_0>
-48.1583

>  <SCORE.INTRA.VDW>
0

>  <SCORE.INTRA.VDW.0>
0

>  <SCORE.INTRA.norm>
0

>  <SCORE.RESTR>
0

>  <SCORE.RESTR.CAVITY>
0

>  <SCORE.RESTR.norm>
0

>  <SCORE.SYSTEM>
0

>  <SCORE.SYSTEM.CONST>
0

>  <SCORE.SYSTEM.DIHEDRAL>
0

>  <SCORE.SYSTEM.SOLV>
0

>  <SCORE.SYSTEM.norm>
0

>  <SCORE.heavy>
12

>  <SCORE.norm>
-1.2547

>  <RMSD>
3.061

$$$$
ligand
 OpenBabel02271912143D
libRbt.so/2013.1/901 2013/11/27
 12 13  0  0  0  0  0  0  0  0999 V2000
    4.6459   15.4461    3.9997 C   0  0  0  0  0  0  0  0  0  0  0  0
    5.9927   17.0406    2.9611 C   0  0  0  0  0  0  0  0  0  0  0  0
    3.9637   14.3070    3.9245 N   0  0  0  0  0  0  0  0  0  0  0  0
    6.6255   17.5432    1.8953 N   0  0  0  0  0  0  0  0  0  0  0  0
    5.2792   15.9084    2.8995 N   0  0  0  0  0  0  0  0  0  0  0  0
    4.7176   16.1064    5.1768 N   0  0  0  0  0  0  0  0  0  0  0  0
    6.8638   19.6327    5.4491 N   0  0  0  0  0  0  0  0  0  0  0  0
    6.1974   19.1190    6.5723 C   0  0  0  0  0  0  0  0  0  0  0  0
    5.4581   17.9177    6.4677 N   0  0  0  0  0  0  0  0  0  0  0  0
    5.4182   17.2626    5.2873 C   0  0  0  0  0  0  0  0  0  0  0  0
    6.0862   17.7553    4.1617 C   0  0  0  0  0  0  0  0  0  0  0  0
    6.8155   18.9414    4.2223 C   0  0  0  0  0  0  0  0  0  0  0  0
  1  3  1  0  0  0  0
  1  5  1  0  0  0  0
  1  6  2  0  0  0  0
  2  5  2  0  0  0  0
  2 11  1  0  0  0  0
  2  4  1  0  0  0  0
  6 10  1  0  0  0  0
  7  8  2  0  0  0  0
  7 12  1  0  0  0  0
  8  9  1  0  0  0  0
  9 10  2  0  0  0  0
 10 11  1  0  0  0  0
 11 12  2  0  0  0  0
M  END
>  <CHROM.1>
5.65761005,17.22183642,4.40920803,2.27632136,-0.95676387,-2.02116580

>  <Name>
ligand

>  <RI>
0

>  <Rbt.Current_Directory>
/home/itssahil/PROJECTS/Mol_Feturizer/Test_systems_manuscript/rnas/4lx5

>  <Rbt.Executable>
rbdock ($Id: //depot/dev/client3/rdock/2013.1/src/exe/rbdock.cxx#4 $)

>  <Rbt.Library>
libRbt.so (2013.1, Build901 2013/11/27)

>  <Rbt.Parameter_File>
/export/apps/rDock/src/rDock_2013.1_src/data/scripts/dock_solv.prm

>  <Rbt.Receptor>
prm/blind_docking_80.prm

>  <SCORE>
-15.0687

>  <SCORE.INTER>
-15.0687

>  <SCORE.INTER.CONST>
1

>  <SCORE.INTER.POLAR>
0

>  <SCORE.INTER.ROT>
0

>  <SCORE.INTER.SOLV>
15.3765

>  <SCORE.INTER.VDW>
-18.7713

>  <SCORE.INTER.norm>
-1.25573

>  <SCORE.INTRA>
0

>  <SCORE.INTRA.DIHEDRAL>
0

>  <SCORE.INTRA.DIHEDRAL.0>
0

>  <SCORE.INTRA.POLAR>
0

>  <SCORE.INTRA.POLAR.0>
0

>  <SCORE.INTRA.REPUL>
0

>  <SCORE.INTRA.REPUL.0>
0

>  <SCORE.INTRA.SOLV>
0

>  <SCORE.INTRA.SOLV.lig_0>
-48.1583

>  <SCORE.INTRA.VDW>
0

>  <SCORE.INTRA.VDW.0>
0

>  <SCORE.INTRA.norm>
0

>  <SCORE.RESTR>
0

>  <SCORE.RESTR.CAVITY>
0

>  <SCORE.RESTR.norm>
0

>  <SCORE.SYSTEM>
0

>  <SCORE.SYSTEM.CONST>
0

>  <SCORE.SYSTEM.DIHEDRAL>
0

>  <SCORE.SYSTEM.SOLV>
0

>  <SCORE.SYSTEM.norm>
0

>  <SCORE.heavy>
12

>  <SCORE.norm>
-1.25573

>  <RMSD>
3.062

$$$$
ligand
 OpenBabel02271912143D
libRbt.so/2013.1/901 2013/11/27
 12 13  0  0  0  0  0  0  0  0999 V2000
    4.6408   15.4405    3.9922 C   0  0  0  0  0  0  0  0  0  0  0  0
    5.9855   17.0417    2.9613 C   0  0  0  0  0  0  0  0  0  0  0  0
    3.9579   14.3021    3.9106 N   0  0  0  0  0  0  0  0  0  0  0  0
    6.6159   17.5515    1.8974 N   0  0  0  0  0  0  0  0  0  0  0  0
    5.2715   15.9102    2.8936 N   0  0  0  0  0  0  0  0  0  0  0  0
    4.7156   16.0925    5.1737 N   0  0  0  0  0  0  0  0  0  0  0  0
    6.8639   19.6160    5.4652 N   0  0  0  0  0  0  0  0  0  0  0  0
    6.2001   19.0946    6.5864 C   0  0  0  0  0  0  0  0  0  0  0  0
    5.4601   17.8943    6.4753 N   0  0  0  0  0  0  0  0  0  0  0  0
    5.4170   17.2476    5.2905 C   0  0  0  0  0  0  0  0  0  0  0  0
    6.0823   17.7480    4.1666 C   0  0  0  0  0  0  0  0  0  0  0  0
    6.8123   18.9333    4.2337 C   0  0  0  0  0  0  0  0  0  0  0  0
  1  3  1  0  0  0  0
  1  5  1  0  0  0  0
  1  6  2  0  0  0  0
  2  5  2  0  0  0  0
  2 11  1  0  0  0  0
  2  4  1  0  0  0  0
  6 10  1  0  0  0  0
  7  8  2  0  0  0  0
  7 12  1  0  0  0  0
  8  9  1  0  0  0  0
  9 10  2  0  0  0  0
 10 11  1  0  0  0  0
 11 12  2  0  0  0  0
M  END
>  <CHROM.1>
5.65417274,17.21289647,4.41150491,2.28053957,-0.95751508,-2.01071000

>  <Name>
ligand

>  <RI>
0

>  <Rbt.Current_Directory>
/home/itssahil/PROJECTS/Mol_Feturizer/Test_systems_manuscript/rnas/4lx5

>  <Rbt.Executable>
rbdock ($Id: //depot/dev/client3/rdock/2013.1/src/exe/rbdock.cxx#4 $)

>  <Rbt.Library>
libRbt.so (2013.1, Build901 2013/11/27)

>  <Rbt.Parameter_File>
/export/apps/rDock/src/rDock_2013.1_src/data/scripts/dock_solv.prm

>  <Rbt.Receptor>
prm/pocket_docking_4.prm

>  <SCORE>
-15.0449

>  <SCORE.INTER>
-15.0449

>  <SCORE.INTER.CONST>
1

>  <SCORE.INTER.POLAR>
0

>  <SCORE.INTER.ROT>
0

>  <SCORE.INTER.SOLV>
15.3341

>  <SCORE.INTER.VDW>
-18.7413

>  <SCORE.INTER.norm>
-1.25374

>  <SCORE.INTRA>
0

>  <SCORE.INTRA.DIHEDRAL>
0

>  <SCORE.INTRA.DIHEDRAL.0>
0

>  <SCORE.INTRA.POLAR>
0

>  <SCORE.INTRA.POLAR.0>
0

>  <SCORE.INTRA.REPUL>
0

>  <SCORE.INTRA.REPUL.0>
0

>  <SCORE.INTRA.SOLV>
0

>  <SCORE.INTRA.SOLV.lig_0>
-48.1583

>  <SCORE.INTRA.VDW>
0

>  <SCORE.INTRA.VDW.0>
0

>  <SCORE.INTRA.norm>
0

>  <SCORE.RESTR>
0

>  <SCORE.RESTR.CAVITY>
0

>  <SCORE.RESTR.norm>
0

>  <SCORE.SYSTEM>
0

>  <SCORE.SYSTEM.CONST>
0

>  <SCORE.SYSTEM.DIHEDRAL>
0

>  <SCORE.SYSTEM.SOLV>
0

>  <SCORE.SYSTEM.norm>
0

>  <SCORE.heavy>
12

>  <SCORE.norm>
-1.25374

>  <RMSD>
3.062

$$$$
ligand
 OpenBabel02271912143D
libRbt.so/2013.1/901 2013/11/27
 12 13  0  0  0  0  0  0  0  0999 V2000
    4.6383   15.4164    3.9936 C   0  0  0  0  0  0  0  0  0  0  0  0
    5.9782   17.0139    2.9507 C   0  0  0  0  0  0  0  0  0  0  0  0
    3.9557   14.2774    3.9196 N   0  0  0  0  0  0  0  0  0  0  0  0
    6.6041   17.5194    1.8822 N   0  0  0  0  0  0  0  0  0  0  0  0
    5.2645   15.8817    2.8907 N   0  0  0  0  0  0  0  0  0  0  0  0
    4.7174   16.0735    5.1720 N   0  0  0  0  0  0  0  0  0  0  0  0
    6.8650   19.5993    5.4401 N   0  0  0  0  0  0  0  0  0  0  0  0
    6.2059   19.0824    6.5661 C   0  0  0  0  0  0  0  0  0  0  0  0
    5.4660   17.8813    6.4630 N   0  0  0  0  0  0  0  0  0  0  0  0
    5.4186   17.2295    5.2811 C   0  0  0  0  0  0  0  0  0  0  0  0
    6.0793   17.7253    4.1526 C   0  0  0  0  0  0  0  0  0  0  0  0
    6.8089   18.9113    4.2118 C   0  0  0  0  0  0  0  0  0  0  0  0
  1  3  1  0  0  0  0
  1  5  1  0  0  0  0
  1  6  2  0  0  0  0
  2  5  2  0  0  0  0
  2 11  1  0  0  0  0
  2  4  1  0  0  0  0
  6 10  1  0  0  0  0
  7  8  2  0  0  0  0
  7 12  1  0  0  0  0
  8  9  1  0  0  0  0
  9 10  2  0  0  0  0
 10 11  1  0  0  0  0
 11 12  2  0  0  0  0
M  END
>  <CHROM.1>
5.65238971,17.19109682,4.40142197,2.28629330,-0.95961227,-2.01029434

>  <Name>
ligand

>  <RI>
0

>  <Rbt.Current_Directory>
/home/itssahil/PROJECTS/Mol_Feturizer/Test_systems_manuscript/rnas/4lx5

>  <Rbt.Executable>
rbdock ($Id: //depot/dev/client3/rdock/2013.1/src/exe/rbdock.cxx#4 $)

>  <Rbt.Library>
libRbt.so (2013.1, Build901 2013/11/27)

>  <Rbt.Parameter_File>
/export/apps/rDock/src/rDock_2013.1_src/data/scripts/dock_solv.prm

>  <Rbt.Receptor>
prm/pocket_docking_5.prm

>  <SCORE>
-15.0309

>  <SCORE.INTER>
-15.0309

>  <SCORE.INTER.CONST>
1

>  <SCORE.INTER.POLAR>
0

>  <SCORE.INTER.ROT>
0

>  <SCORE.INTER.SOLV>
15.3249

>  <SCORE.INTER.VDW>
-18.7289

>  <SCORE.INTER.norm>
-1.25258

>  <SCORE.INTRA>
0

>  <SCORE.INTRA.DIHEDRAL>
0

>  <SCORE.INTRA.DIHEDRAL.0>
0

>  <SCORE.INTRA.POLAR>
0

>  <SCORE.INTRA.POLAR.0>
0

>  <SCORE.INTRA.REPUL>
0

>  <SCORE.INTRA.REPUL.0>
0

>  <SCORE.INTRA.SOLV>
0

>  <SCORE.INTRA.SOLV.lig_0>
-48.1583

>  <SCORE.INTRA.VDW>
0

>  <SCORE.INTRA.VDW.0>
0

>  <SCORE.INTRA.norm>
0

>  <SCORE.RESTR>
0

>  <SCORE.RESTR.CAVITY>
0

>  <SCORE.RESTR.norm>
0

>  <SCORE.SYSTEM>
0

>  <SCORE.SYSTEM.CONST>
0

>  <SCORE.SYSTEM.DIHEDRAL>
0

>  <SCORE.SYSTEM.SOLV>
0

>  <SCORE.SYSTEM.norm>
0

>  <SCORE.heavy>
12

>  <SCORE.norm>
-1.25258

>  <RMSD>
3.062

$$$$
ligand
 OpenBabel02271912143D
libRbt.so/2013.1/901 2013/11/27
 12 13  0  0  0  0  0  0  0  0999 V2000
    4.6397   15.4309    3.9886 C   0  0  0  0  0  0  0  0  0  0  0  0
    5.9946   17.0272    2.9633 C   0  0  0  0  0  0  0  0  0  0  0  0
    3.9530   14.2951    3.9042 N   0  0  0  0  0  0  0  0  0  0  0  0
    6.6314   17.5346    1.9021 N   0  0  0  0  0  0  0  0  0  0  0  0
    5.2768   15.8983    2.8927 N   0  0  0  0  0  0  0  0  0  0  0  0
    4.7120   16.0827    5.1703 N   0  0  0  0  0  0  0  0  0  0  0  0
    6.8719   19.5984    5.4707 N   0  0  0  0  0  0  0  0  0  0  0  0
    6.2015   19.0795    6.5892 C   0  0  0  0  0  0  0  0  0  0  0  0
    5.4575   17.8819    6.4750 N   0  0  0  0  0  0  0  0  0  0  0  0
    5.4170   17.2353    5.2901 C   0  0  0  0  0  0  0  0  0  0  0  0
    6.0890   17.7331    4.1690 C   0  0  0  0  0  0  0  0  0  0  0  0
    6.8230   18.9158    4.2391 C   0  0  0  0  0  0  0  0  0  0  0  0
  1  3  1  0  0  0  0
  1  5  1  0  0  0  0
  1  6  2  0  0  0  0
  2  5  2  0  0  0  0
  2 11  1  0  0  0  0
  2  4  1  0  0  0  0
  6 10  1  0  0  0  0
  7  8  2  0  0  0  0
  7 12  1  0  0  0  0
  8  9  1  0  0  0  0
  9 10  2  0  0  0  0
 10 11  1  0  0  0  0
 11 12  2  0  0  0  0
M  END
>  <CHROM.1>
5.65781945,17.19966217,4.41209555,2.27663867,-0.95239086,-2.01395279

>  <Name>
ligand

>  <RI>
0

>  <Rbt.Current_Directory>
/home/itssahil/PROJECTS/Mol_Feturizer/Test_systems_manuscript/rnas/4lx5

>  <Rbt.Executable>
rbdock ($Id: //depot/dev/client3/rdock/2013.1/src/exe/rbdock.cxx#4 $)

>  <Rbt.Library>
libRbt.so (2013.1, Build901 2013/11/27)

>  <Rbt.Parameter_File>
/export/apps/rDock/src/rDock_2013.1_src/data/scripts/dock_solv.prm

>  <Rbt.Receptor>
prm/pocket_docking_7.prm

>  <SCORE>
-15.0518

>  <SCORE.INTER>
-15.0518

>  <SCORE.INTER.CONST>
1

>  <SCORE.INTER.POLAR>
0

>  <SCORE.INTER.ROT>
0

>  <SCORE.INTER.SOLV>
15.3109

>  <SCORE.INTER.VDW>
-18.7382

>  <SCORE.INTER.norm>
-1.25432

>  <SCORE.INTRA>
0

>  <SCORE.INTRA.DIHEDRAL>
0

>  <SCORE.INTRA.DIHEDRAL.0>
0

>  <SCORE.INTRA.POLAR>
0

>  <SCORE.INTRA.POLAR.0>
0

>  <SCORE.INTRA.REPUL>
0

>  <SCORE.INTRA.REPUL.0>
0

>  <SCORE.INTRA.SOLV>
0

>  <SCORE.INTRA.SOLV.lig_0>
-48.1583

>  <SCORE.INTRA.VDW>
0

>  <SCORE.INTRA.VDW.0>
0

>  <SCORE.INTRA.norm>
0

>  <SCORE.RESTR>
0

>  <SCORE.RESTR.CAVITY>
0

>  <SCORE.RESTR.norm>
0

>  <SCORE.SYSTEM>
0

>  <SCORE.SYSTEM.CONST>
0

>  <SCORE.SYSTEM.DIHEDRAL>
0

>  <SCORE.SYSTEM.SOLV>
0

>  <SCORE.SYSTEM.norm>
0

>  <SCORE.heavy>
12

>  <SCORE.norm>
-1.25432

>  <RMSD>
3.062

$$$$
ligand
 OpenBabel02271912143D
libRbt.so/2013.1/901 2013/11/27
 12 13  0  0  0  0  0  0  0  0999 V2000
    4.6367   15.4406    4.0004 C   0  0  0  0  0  0  0  0  0  0  0  0
    5.9779   17.0305    2.9477 C   0  0  0  0  0  0  0  0  0  0  0  0
    3.9533   14.3015    3.9334 N   0  0  0  0  0  0  0  0  0  0  0  0
    6.6044   17.5288    1.8762 N   0  0  0  0  0  0  0  0  0  0  0  0
    5.2634   15.8985    2.8946 N   0  0  0  0  0  0  0  0  0  0  0  0
    4.7159   16.1050    5.1746 N   0  0  0  0  0  0  0  0  0  0  0  0
    6.8658   19.6310    5.4209 N   0  0  0  0  0  0  0  0  0  0  0  0
    6.2061   19.1216    6.5501 C   0  0  0  0  0  0  0  0  0  0  0  0
    5.4655   17.9204    6.4544 N   0  0  0  0  0  0  0  0  0  0  0  0
    5.4179   17.2612    5.2766 C   0  0  0  0  0  0  0  0  0  0  0  0
    6.0792   17.7495    4.1451 C   0  0  0  0  0  0  0  0  0  0  0  0
    6.8096   18.9353    4.1970 C   0  0  0  0  0  0  0  0  0  0  0  0
  1  3  1  0  0  0  0
  1  5  1  0  0  0  0
  1  6  2  0  0  0  0
  2  5  2  0  0  0  0
  2 11  1  0  0  0  0
  2  4  1  0  0  0  0
  6 10  1  0  0  0  0
  7  8  2  0  0  0  0
  7 12  1  0  0  0  0
  8  9  1  0  0  0  0
  9 10  2  0  0  0  0
 10 11  1  0  0  0  0
 11 12  2  0  0  0  0
M  END
>  <CHROM.1>
5.65186669,17.21710603,4.39719465,2.28643379,-0.95891531,-2.01648066

>  <Name>
ligand

>  <RI>
0

>  <Rbt.Current_Directory>
/home/itssahil/PROJECTS/Mol_Feturizer/Test_systems_manuscript/rnas/4lx5

>  <Rbt.Executable>
rbdock ($Id: //depot/dev/client3/rdock/2013.1/src/exe/rbdock.cxx#4 $)

>  <Rbt.Library>
libRbt.so (2013.1, Build901 2013/11/27)

>  <Rbt.Parameter_File>
/export/apps/rDock/src/rDock_2013.1_src/data/scripts/dock_solv.prm

>  <Rbt.Receptor>
prm/pocket_docking_8.prm

>  <SCORE>
-15.0397

>  <SCORE.INTER>
-15.0397

>  <SCORE.INTER.CONST>
1

>  <SCORE.INTER.POLAR>
0

>  <SCORE.INTER.ROT>
0

>  <SCORE.INTER.SOLV>
15.3236

>  <SCORE.INTER.VDW>
-18.7343

>  <SCORE.INTER.norm>
-1.2533

>  <SCORE.INTRA>
0

>  <SCORE.INTRA.DIHEDRAL>
0

>  <SCORE.INTRA.DIHEDRAL.0>
0

>  <SCORE.INTRA.POLAR>
0

>  <SCORE.INTRA.POLAR.0>
0

>  <SCORE.INTRA.REPUL>
0

>  <SCORE.INTRA.REPUL.0>
0

>  <SCORE.INTRA.SOLV>
0

>  <SCORE.INTRA.SOLV.lig_0>
-48.1583

>  <SCORE.INTRA.VDW>
0

>  <SCORE.INTRA.VDW.0>
0

>  <SCORE.INTRA.norm>
0

>  <SCORE.RESTR>
0

>  <SCORE.RESTR.CAVITY>
0

>  <SCORE.RESTR.norm>
0

>  <SCORE.SYSTEM>
0

>  <SCORE.SYSTEM.CONST>
0

>  <SCORE.SYSTEM.DIHEDRAL>
0

>  <SCORE.SYSTEM.SOLV>
0

>  <SCORE.SYSTEM.norm>
0

>  <SCORE.heavy>
12

>  <SCORE.norm>
-1.2533

>  <RMSD>
3.062

$$$$
ligand
 OpenBabel02271912143D
libRbt.so/2013.1/901 2013/11/27
 12 13  0  0  0  0  0  0  0  0999 V2000
    4.6409   15.4160    3.9948 C   0  0  0  0  0  0  0  0  0  0  0  0
    5.9740   17.0190    2.9516 C   0  0  0  0  0  0  0  0  0  0  0  0
    3.9626   14.2744    3.9208 N   0  0  0  0  0  0  0  0  0  0  0  0
    6.5972   17.5273    1.8828 N   0  0  0  0  0  0  0  0  0  0  0  0
    5.2645   15.8842    2.8916 N   0  0  0  0  0  0  0  0  0  0  0  0
    4.7185   16.0728    5.1735 N   0  0  0  0  0  0  0  0  0  0  0  0
    6.8529   19.6065    5.4415 N   0  0  0  0  0  0  0  0  0  0  0  0
    6.1967   19.0867    6.5678 C   0  0  0  0  0  0  0  0  0  0  0  0
    5.4613   17.8828    6.4647 N   0  0  0  0  0  0  0  0  0  0  0  0
    5.4154   17.2314    5.2826 C   0  0  0  0  0  0  0  0  0  0  0  0
    6.0734   17.7302    4.1537 C   0  0  0  0  0  0  0  0  0  0  0  0
    6.7985   18.9189    4.2129 C   0  0  0  0  0  0  0  0  0  0  0  0
  1  3  1  0  0  0  0
  1  5  1  0  0  0  0
  1  6  2  0  0  0  0
  2  5  2  0  0  0  0
  2 11  1  0  0  0  0
  2  4  1  0  0  0  0
  6 10  1  0  0  0  0
  7  8  2  0  0  0  0
  7 12  1  0  0  0  0
  8  9  1  0  0  0  0
  9 10  2  0  0  0  0
 10 11  1  0  0  0  0
 11 12  2  0  0  0  0
M  END
>  <CHROM.1>
5.64864265,17.19428317,4.40264111,2.28470913,-0.96336305,-2.01113322

>  <Name>
ligand

>  <RI>
0

>  <Rbt.Current_Directory>
/home/itssahil/PROJECTS/Mol_Feturizer/Test_systems_manuscript/rnas/4lx5

>  <Rbt.Executable>
rbdock ($Id: //depot/dev/client3/rdock/2013.1/src/exe/rbdock.cxx#4 $)

>  <Rbt.Library>
libRbt.so (2013.1, Build901 2013/11/27)

>  <Rbt.Parameter_File>
/export/apps/rDock/src/rDock_2013.1_src/data/scripts/dock_solv.prm

>  <Rbt.Receptor>
prm/pocket_docking_3.prm

>  <SCORE>
-15.031

>  <SCORE.INTER>
-15.031

>  <SCORE.INTER.CONST>
1

>  <SCORE.INTER.POLAR>
0

>  <SCORE.INTER.ROT>
0

>  <SCORE.INTER.SOLV>
15.3488

>  <SCORE.INTER.VDW>
-18.737

>  <SCORE.INTER.norm>
-1.25259

>  <SCORE.INTRA>
0

>  <SCORE.INTRA.DIHEDRAL>
0

>  <SCORE.INTRA.DIHEDRAL.0>
0

>  <SCORE.INTRA.POLAR>
0

>  <SCORE.INTRA.POLAR.0>
0

>  <SCORE.INTRA.REPUL>
0

>  <SCORE.INTRA.REPUL.0>
0

>  <SCORE.INTRA.SOLV>
0

>  <SCORE.INTRA.SOLV.lig_0>
-48.1583

>  <SCORE.INTRA.VDW>
0

>  <SCORE.INTRA.VDW.0>
0

>  <SCORE.INTRA.norm>
0

>  <SCORE.RESTR>
0

>  <SCORE.RESTR.CAVITY>
0

>  <SCORE.RESTR.norm>
0

>  <SCORE.SYSTEM>
0

>  <SCORE.SYSTEM.CONST>
0

>  <SCORE.SYSTEM.DIHEDRAL>
0

>  <SCORE.SYSTEM.SOLV>
0

>  <SCORE.SYSTEM.norm>
0

>  <SCORE.heavy>
12

>  <SCORE.norm>
-1.25259

>  <RMSD>
3.063

$$$$
ligand
 OpenBabel02271912143D
libRbt.so/2013.1/901 2013/11/27
 12 13  0  0  0  0  0  0  0  0999 V2000
    4.6487   15.4482    4.0044 C   0  0  0  0  0  0  0  0  0  0  0  0
    6.0028   17.0365    2.9659 C   0  0  0  0  0  0  0  0  0  0  0  0
    3.9620   14.3116    3.9293 N   0  0  0  0  0  0  0  0  0  0  0  0
    6.6389   17.5356    1.9004 N   0  0  0  0  0  0  0  0  0  0  0  0
    5.2850   15.9070    2.9045 N   0  0  0  0  0  0  0  0  0  0  0  0
    4.7216   16.1092    5.1810 N   0  0  0  0  0  0  0  0  0  0  0  0
    6.8814   19.6272    5.4526 N   0  0  0  0  0  0  0  0  0  0  0  0
    6.2117   19.1171    6.5755 C   0  0  0  0  0  0  0  0  0  0  0  0
    5.4678   17.9186    6.4712 N   0  0  0  0  0  0  0  0  0  0  0  0
    5.4266   17.2627    5.2913 C   0  0  0  0  0  0  0  0  0  0  0  0
    6.0978   17.7518    4.1660 C   0  0  0  0  0  0  0  0  0  0  0  0
    6.8318   18.9350    4.2264 C   0  0  0  0  0  0  0  0  0  0  0  0
  1  3  1  0  0  0  0
  1  5  1  0  0  0  0
  1  6  2  0  0  0  0
  2  5  2  0  0  0  0
  2 11  1  0  0  0  0
  2  4  1  0  0  0  0
  6 10  1  0  0  0  0
  7  8  2  0  0  0  0
  7 12  1  0  0  0  0
  8  9  1  0  0  0  0
  9 10  2  0  0  0  0
 10 11  1  0  0  0  0
 11 12  2  0  0  0  0
M  END
>  <CHROM.1>
5.66688018,17.22022889,4.41347608,2.27751885,-0.95272315,-2.02103942

>  <Name>
ligand

>  <RI>
0

>  <Rbt.Current_Directory>
/home/itssahil/PROJECTS/Mol_Feturizer/Test_systems_manuscript/rnas/4lx5

>  <Rbt.Executable>
rbdock ($Id: //depot/dev/client3/rdock/2013.1/src/exe/rbdock.cxx#4 $)

>  <Rbt.Library>
libRbt.so (2013.1, Build901 2013/11/27)

>  <Rbt.Parameter_File>
/export/apps/rDock/src/rDock_2013.1_src/data/scripts/dock_solv.prm

>  <Rbt.Receptor>
prm/pocket_docking_3.prm

>  <SCORE>
-15.0334

>  <SCORE.INTER>
-15.0334

>  <SCORE.INTER.CONST>
1

>  <SCORE.INTER.POLAR>
0

>  <SCORE.INTER.ROT>
0

>  <SCORE.INTER.SOLV>
15.3735

>  <SCORE.INTER.VDW>
-18.7468

>  <SCORE.INTER.norm>
-1.25278

>  <SCORE.INTRA>
0

>  <SCORE.INTRA.DIHEDRAL>
0

>  <SCORE.INTRA.DIHEDRAL.0>
0

>  <SCORE.INTRA.POLAR>
0

>  <SCORE.INTRA.POLAR.0>
0

>  <SCORE.INTRA.REPUL>
0

>  <SCORE.INTRA.REPUL.0>
0

>  <SCORE.INTRA.SOLV>
0

>  <SCORE.INTRA.SOLV.lig_0>
-48.1583

>  <SCORE.INTRA.VDW>
0

>  <SCORE.INTRA.VDW.0>
0

>  <SCORE.INTRA.norm>
0

>  <SCORE.RESTR>
0

>  <SCORE.RESTR.CAVITY>
0

>  <SCORE.RESTR.norm>
0

>  <SCORE.SYSTEM>
0

>  <SCORE.SYSTEM.CONST>
0

>  <SCORE.SYSTEM.DIHEDRAL>
0

>  <SCORE.SYSTEM.SOLV>
0

>  <SCORE.SYSTEM.norm>
0

>  <SCORE.heavy>
12

>  <SCORE.norm>
-1.25278

>  <RMSD>
3.063

$$$$
ligand
 OpenBabel02271912143D
libRbt.so/2013.1/901 2013/11/27
 12 13  0  0  0  0  0  0  0  0999 V2000
    4.6435   15.4292    3.9923 C   0  0  0  0  0  0  0  0  0  0  0  0
    5.9822   17.0367    2.9633 C   0  0  0  0  0  0  0  0  0  0  0  0
    3.9625   14.2899    3.9087 N   0  0  0  0  0  0  0  0  0  0  0  0
    6.6084   17.5515    1.8994 N   0  0  0  0  0  0  0  0  0  0  0  0
    5.2701   15.9041    2.8936 N   0  0  0  0  0  0  0  0  0  0  0  0
    4.7208   16.0770    5.1760 N   0  0  0  0  0  0  0  0  0  0  0  0
    6.8634   19.6034    5.4739 N   0  0  0  0  0  0  0  0  0  0  0  0
    6.2041   19.0767    6.5952 C   0  0  0  0  0  0  0  0  0  0  0  0
    5.4659   17.8755    6.4820 N   0  0  0  0  0  0  0  0  0  0  0  0
    5.4203   17.2330    5.2949 C   0  0  0  0  0  0  0  0  0  0  0  0
    6.0814   17.7387    4.1709 C   0  0  0  0  0  0  0  0  0  0  0  0
    6.8093   18.9251    4.2401 C   0  0  0  0  0  0  0  0  0  0  0  0
  1  3  1  0  0  0  0
  1  5  1  0  0  0  0
  1  6  2  0  0  0  0
  2  5  2  0  0  0  0
  2 11  1  0  0  0  0
  2  4  1  0  0  0  0
  6 10  1  0  0  0  0
  7  8  2  0  0  0  0
  7 12  1  0  0  0  0
  8  9  1  0  0  0  0
  9 10  2  0  0  0  0
 10 11  1  0  0  0  0
 11 12  2  0  0  0  0
M  END
>  <CHROM.1>
5.65495204,17.20195402,4.41508233,2.28397915,-0.96045901,-2.00423781

>  <Name>
ligand

>  <RI>
0

>  <Rbt.Current_Directory>
/home/itssahil/PROJECTS/Mol_Feturizer/Test_systems_manuscript/rnas/4lx5

>  <Rbt.Executable>
rbdock ($Id: //depot/dev/client3/rdock/2013.1/src/exe/rbdock.cxx#4 $)

>  <Rbt.Library>
libRbt.so (2013.1, Build901 2013/11/27)

>  <Rbt.Parameter_File>
/export/apps/rDock/src/rDock_2013.1_src/data/scripts/dock_solv.prm

>  <Rbt.Receptor>
prm/pocket_docking_4.prm

>  <SCORE>
-15.0527

>  <SCORE.INTER>
-15.0527

>  <SCORE.INTER.CONST>
1

>  <SCORE.INTER.POLAR>
0

>  <SCORE.INTER.ROT>
0

>  <SCORE.INTER.SOLV>
15.3451

>  <SCORE.INTER.VDW>
-18.7502

>  <SCORE.INTER.norm>
-1.25439

>  <SCORE.INTRA>
0

>  <SCORE.INTRA.DIHEDRAL>
0

>  <SCORE.INTRA.DIHEDRAL.0>
0

>  <SCORE.INTRA.POLAR>
0

>  <SCORE.INTRA.POLAR.0>
0

>  <SCORE.INTRA.REPUL>
0

>  <SCORE.INTRA.REPUL.0>
0

>  <SCORE.INTRA.SOLV>
0

>  <SCORE.INTRA.SOLV.lig_0>
-48.1583

>  <SCORE.INTRA.VDW>
0

>  <SCORE.INTRA.VDW.0>
0

>  <SCORE.INTRA.norm>
0

>  <SCORE.RESTR>
0

>  <SCORE.RESTR.CAVITY>
0

>  <SCORE.RESTR.norm>
0

>  <SCORE.SYSTEM>
0

>  <SCORE.SYSTEM.CONST>
0

>  <SCORE.SYSTEM.DIHEDRAL>
0

>  <SCORE.SYSTEM.SOLV>
0

>  <SCORE.SYSTEM.norm>
0

>  <SCORE.heavy>
12

>  <SCORE.norm>
-1.25439

>  <RMSD>
3.063

$$$$
ligand
 OpenBabel02271912143D
libRbt.so/2013.1/901 2013/11/27
 12 13  0  0  0  0  0  0  0  0999 V2000
    4.6409   15.4439    4.0035 C   0  0  0  0  0  0  0  0  0  0  0  0
    5.9852   17.0350    2.9566 C   0  0  0  0  0  0  0  0  0  0  0  0
    3.9566   14.3056    3.9328 N   0  0  0  0  0  0  0  0  0  0  0  0
    6.6140   17.5352    1.8872 N   0  0  0  0  0  0  0  0  0  0  0  0
    5.2699   15.9038    2.8998 N   0  0  0  0  0  0  0  0  0  0  0  0
    4.7188   16.1057    5.1793 N   0  0  0  0  0  0  0  0  0  0  0  0
    6.8714   19.6292    5.4370 N   0  0  0  0  0  0  0  0  0  0  0  0
    6.2094   19.1179    6.5640 C   0  0  0  0  0  0  0  0  0  0  0  0
    5.4678   17.9176    6.4644 N   0  0  0  0  0  0  0  0  0  0  0  0
    5.4216   17.2610    5.2851 C   0  0  0  0  0  0  0  0  0  0  0  0
    6.0852   17.7512    4.1557 C   0  0  0  0  0  0  0  0  0  0  0  0
    6.8165   18.9362    4.2115 C   0  0  0  0  0  0  0  0  0  0  0  0
  1  3  1  0  0  0  0
  1  5  1  0  0  0  0
  1  6  2  0  0  0  0
  2  5  2  0  0  0  0
  2 11  1  0  0  0  0
  2  4  1  0  0  0  0
  6 10  1  0  0  0  0
  7  8  2  0  0  0  0
  7 12  1  0  0  0  0
  8  9  1  0  0  0  0
  9 10  2  0  0  0  0
 10 11  1  0  0  0  0
 11 12  2  0  0  0  0
M  END
>  <CHROM.1>
5.65698827,17.21867233,4.40594281,2.28449862,-0.95740339,-2.01584033

>  <Name>
ligand

>  <RI>
0

>  <Rbt.Current_Directory>
/home/itssahil/PROJECTS/Mol_Feturizer/Test_systems_manuscript/rnas/4lx5

>  <Rbt.Executable>
rbdock ($Id: //depot/dev/client3/rdock/2013.1/src/exe/rbdock.cxx#4 $)

>  <Rbt.Library>
libRbt.so (2013.1, Build901 2013/11/27)

>  <Rbt.Parameter_File>
/export/apps/rDock/src/rDock_2013.1_src/data/scripts/dock_solv.prm

>  <Rbt.Receptor>
prm/pocket_docking_6.prm

>  <SCORE>
-15.0395

>  <SCORE.INTER>
-15.0395

>  <SCORE.INTER.CONST>
1

>  <SCORE.INTER.POLAR>
0

>  <SCORE.INTER.ROT>
0

>  <SCORE.INTER.SOLV>
15.3375

>  <SCORE.INTER.VDW>
-18.7388

>  <SCORE.INTER.norm>
-1.25329

>  <SCORE.INTRA>
0

>  <SCORE.INTRA.DIHEDRAL>
0

>  <SCORE.INTRA.DIHEDRAL.0>
0

>  <SCORE.INTRA.POLAR>
0

>  <SCORE.INTRA.POLAR.0>
0

>  <SCORE.INTRA.REPUL>
0

>  <SCORE.INTRA.REPUL.0>
0

>  <SCORE.INTRA.SOLV>
0

>  <SCORE.INTRA.SOLV.lig_0>
-48.1583

>  <SCORE.INTRA.VDW>
0

>  <SCORE.INTRA.VDW.0>
0

>  <SCORE.INTRA.norm>
0

>  <SCORE.RESTR>
0

>  <SCORE.RESTR.CAVITY>
0

>  <SCORE.RESTR.norm>
0

>  <SCORE.SYSTEM>
0

>  <SCORE.SYSTEM.CONST>
0

>  <SCORE.SYSTEM.DIHEDRAL>
0

>  <SCORE.SYSTEM.SOLV>
0

>  <SCORE.SYSTEM.norm>
0

>  <SCORE.heavy>
12

>  <SCORE.norm>
-1.25329

>  <RMSD>
3.063

$$$$
ligand
 OpenBabel02271912143D
libRbt.so/2013.1/901 2013/11/27
 12 13  0  0  0  0  0  0  0  0999 V2000
    4.6404   15.4158    3.9985 C   0  0  0  0  0  0  0  0  0  0  0  0
    5.9726   17.0185    2.9537 C   0  0  0  0  0  0  0  0  0  0  0  0
    3.9604   14.2751    3.9249 N   0  0  0  0  0  0  0  0  0  0  0  0
    6.5936   17.5274    1.8840 N   0  0  0  0  0  0  0  0  0  0  0  0
    5.2616   15.8846    2.8942 N   0  0  0  0  0  0  0  0  0  0  0  0
    4.7219   16.0711    5.1777 N   0  0  0  0  0  0  0  0  0  0  0  0
    6.8613   19.6019    5.4445 N   0  0  0  0  0  0  0  0  0  0  0  0
    6.2074   19.0814    6.5719 C   0  0  0  0  0  0  0  0  0  0  0  0
    5.4703   17.8786    6.4693 N   0  0  0  0  0  0  0  0  0  0  0  0
    5.4205   17.2287    5.2865 C   0  0  0  0  0  0  0  0  0  0  0  0
    6.0761   17.7281    4.1565 C   0  0  0  0  0  0  0  0  0  0  0  0
    6.8028   18.9158    4.2153 C   0  0  0  0  0  0  0  0  0  0  0  0
  1  3  1  0  0  0  0
  1  5  1  0  0  0  0
  1  6  2  0  0  0  0
  2  5  2  0  0  0  0
  2 11  1  0  0  0  0
  2  4  1  0  0  0  0
  6 10  1  0  0  0  0
  7  8  2  0  0  0  0
  7 12  1  0  0  0  0
  8  9  1  0  0  0  0
  9 10  2  0  0  0  0
 10 11  1  0  0  0  0
 11 12  2  0  0  0  0
M  END
>  <CHROM.1>
5.65135148,17.19238481,4.40587749,2.28981622,-0.96338006,-2.00568010

>  <Name>
ligand

>  <RI>
0

>  <Rbt.Current_Directory>
/home/itssahil/PROJECTS/Mol_Feturizer/Test_systems_manuscript/rnas/4lx5

>  <Rbt.Executable>
rbdock ($Id: //depot/dev/client3/rdock/2013.1/src/exe/rbdock.cxx#4 $)

>  <Rbt.Library>
libRbt.so (2013.1, Build901 2013/11/27)

>  <Rbt.Parameter_File>
/export/apps/rDock/src/rDock_2013.1_src/data/scripts/dock_solv.prm

>  <Rbt.Receptor>
prm/blind_docking_40.prm

>  <SCORE>
-15.0317

>  <SCORE.INTER>
-15.0317

>  <SCORE.INTER.CONST>
1

>  <SCORE.INTER.POLAR>
0

>  <SCORE.INTER.ROT>
0

>  <SCORE.INTER.SOLV>
15.3339

>  <SCORE.INTER.VDW>
-18.7324

>  <SCORE.INTER.norm>
-1.25264

>  <SCORE.INTRA>
0

>  <SCORE.INTRA.DIHEDRAL>
0

>  <SCORE.INTRA.DIHEDRAL.0>
0

>  <SCORE.INTRA.POLAR>
0

>  <SCORE.INTRA.POLAR.0>
0

>  <SCORE.INTRA.REPUL>
0

>  <SCORE.INTRA.REPUL.0>
0

>  <SCORE.INTRA.SOLV>
0

>  <SCORE.INTRA.SOLV.lig_0>
-48.1583

>  <SCORE.INTRA.VDW>
0

>  <SCORE.INTRA.VDW.0>
0

>  <SCORE.INTRA.norm>
0

>  <SCORE.RESTR>
0

>  <SCORE.RESTR.CAVITY>
0

>  <SCORE.RESTR.norm>
0

>  <SCORE.SYSTEM>
0

>  <SCORE.SYSTEM.CONST>
0

>  <SCORE.SYSTEM.DIHEDRAL>
0

>  <SCORE.SYSTEM.SOLV>
0

>  <SCORE.SYSTEM.norm>
0

>  <SCORE.heavy>
12

>  <SCORE.norm>
-1.25264

>  <RMSD>
3.064

$$$$
ligand
 OpenBabel02271912143D
libRbt.so/2013.1/901 2013/11/27
 12 13  0  0  0  0  0  0  0  0999 V2000
    4.6425   15.4343    4.0092 C   0  0  0  0  0  0  0  0  0  0  0  0
    5.9793   17.0250    2.9521 C   0  0  0  0  0  0  0  0  0  0  0  0
    3.9600   14.2946    3.9447 N   0  0  0  0  0  0  0  0  0  0  0  0
    6.6024   17.5234    1.8786 N   0  0  0  0  0  0  0  0  0  0  0  0
    5.2658   15.8923    2.9016 N   0  0  0  0  0  0  0  0  0  0  0  0
    4.7243   16.0995    5.1829 N   0  0  0  0  0  0  0  0  0  0  0  0
    6.8715   19.6276    5.4216 N   0  0  0  0  0  0  0  0  0  0  0  0
    6.2154   19.1182    6.5528 C   0  0  0  0  0  0  0  0  0  0  0  0
    5.4756   17.9162    6.4597 N   0  0  0  0  0  0  0  0  0  0  0  0
    5.4254   17.2564    5.2824 C   0  0  0  0  0  0  0  0  0  0  0  0
    6.0832   17.7447    4.1489 C   0  0  0  0  0  0  0  0  0  0  0  0
    6.8126   18.9312    4.1982 C   0  0  0  0  0  0  0  0  0  0  0  0
  1  3  1  0  0  0  0
  1  5  1  0  0  0  0
  1  6  2  0  0  0  0
  2  5  2  0  0  0  0
  2 11  1  0  0  0  0
  2  4  1  0  0  0  0
  6 10  1  0  0  0  0
  7  8  2  0  0  0  0
  7 12  1  0  0  0  0
  8  9  1  0  0  0  0
  9 10  2  0  0  0  0
 10 11  1  0  0  0  0
 11 12  2  0  0  0  0
M  END
>  <CHROM.1>
5.65706007,17.21203478,4.40240755,2.28999860,-0.96094220,-2.01407823

>  <Name>
ligand

>  <RI>
0

>  <Rbt.Current_Directory>
/home/itssahil/PROJECTS/Mol_Feturizer/Test_systems_manuscript/rnas/4lx5

>  <Rbt.Executable>
rbdock ($Id: //depot/dev/client3/rdock/2013.1/src/exe/rbdock.cxx#4 $)

>  <Rbt.Library>
libRbt.so (2013.1, Build901 2013/11/27)

>  <Rbt.Parameter_File>
/export/apps/rDock/src/rDock_2013.1_src/data/scripts/dock_solv.prm

>  <Rbt.Receptor>
prm/blind_docking_40.prm

>  <SCORE>
-15.0441

>  <SCORE.INTER>
-15.0441

>  <SCORE.INTER.CONST>
1

>  <SCORE.INTER.POLAR>
0

>  <SCORE.INTER.ROT>
0

>  <SCORE.INTER.SOLV>
15.3567

>  <SCORE.INTER.VDW>
-18.7483

>  <SCORE.INTER.norm>
-1.25368

>  <SCORE.INTRA>
0

>  <SCORE.INTRA.DIHEDRAL>
0

>  <SCORE.INTRA.DIHEDRAL.0>
0

>  <SCORE.INTRA.POLAR>
0

>  <SCORE.INTRA.POLAR.0>
0

>  <SCORE.INTRA.REPUL>
0

>  <SCORE.INTRA.REPUL.0>
0

>  <SCORE.INTRA.SOLV>
0

>  <SCORE.INTRA.SOLV.lig_0>
-48.1583

>  <SCORE.INTRA.VDW>
0

>  <SCORE.INTRA.VDW.0>
0

>  <SCORE.INTRA.norm>
0

>  <SCORE.RESTR>
0

>  <SCORE.RESTR.CAVITY>
0

>  <SCORE.RESTR.norm>
0

>  <SCORE.SYSTEM>
0

>  <SCORE.SYSTEM.CONST>
0

>  <SCORE.SYSTEM.DIHEDRAL>
0

>  <SCORE.SYSTEM.SOLV>
0

>  <SCORE.SYSTEM.norm>
0

>  <SCORE.heavy>
12

>  <SCORE.norm>
-1.25368

>  <RMSD>
3.064

$$$$
ligand
 OpenBabel02271912143D
libRbt.so/2013.1/901 2013/11/27
 12 13  0  0  0  0  0  0  0  0999 V2000
    4.6411   15.4139    4.0000 C   0  0  0  0  0  0  0  0  0  0  0  0
    5.9720   17.0157    2.9522 C   0  0  0  0  0  0  0  0  0  0  0  0
    3.9621   14.2725    3.9286 N   0  0  0  0  0  0  0  0  0  0  0  0
    6.5925   17.5231    1.8814 N   0  0  0  0  0  0  0  0  0  0  0  0
    5.2619   15.8811    2.8948 N   0  0  0  0  0  0  0  0  0  0  0  0
    4.7221   16.0715    5.1780 N   0  0  0  0  0  0  0  0  0  0  0  0
    6.8587   19.6045    5.4380 N   0  0  0  0  0  0  0  0  0  0  0  0
    6.2053   19.0856    6.5664 C   0  0  0  0  0  0  0  0  0  0  0  0
    5.4691   17.8820    6.4661 N   0  0  0  0  0  0  0  0  0  0  0  0
    5.4198   17.2298    5.2845 C   0  0  0  0  0  0  0  0  0  0  0  0
    6.0749   17.7277    4.1536 C   0  0  0  0  0  0  0  0  0  0  0  0
    6.8007   18.9161    4.2100 C   0  0  0  0  0  0  0  0  0  0  0  0
  1  3  1  0  0  0  0
  1  5  1  0  0  0  0
  1  6  2  0  0  0  0
  2  5  2  0  0  0  0
  2 11  1  0  0  0  0
  2  4  1  0  0  0  0
  6 10  1  0  0  0  0
  7  8  2  0  0  0  0
  7 12  1  0  0  0  0
  8  9  1  0  0  0  0
  9 10  2  0  0  0  0
 10 11  1  0  0  0  0
 11 12  2  0  0  0  0
M  END
>  <CHROM.1>
5.65065512,17.19206279,4.40399288,2.28930175,-0.96414221,-2.00800163

>  <Name>
ligand

>  <RI>
0

>  <Rbt.Current_Directory>
/home/itssahil/PROJECTS/Mol_Feturizer/Test_systems_manuscript/rnas/4lx5

>  <Rbt.Executable>
rbdock ($Id: //depot/dev/client3/rdock/2013.1/src/exe/rbdock.cxx#4 $)

>  <Rbt.Library>
libRbt.so (2013.1, Build901 2013/11/27)

>  <Rbt.Parameter_File>
/export/apps/rDock/src/rDock_2013.1_src/data/scripts/dock_solv.prm

>  <Rbt.Receptor>
prm/blind_docking_60.prm

>  <SCORE>
-15.0315

>  <SCORE.INTER>
-15.0315

>  <SCORE.INTER.CONST>
1

>  <SCORE.INTER.POLAR>
0

>  <SCORE.INTER.ROT>
0

>  <SCORE.INTER.SOLV>
15.3455

>  <SCORE.INTER.VDW>
-18.7361

>  <SCORE.INTER.norm>
-1.25262

>  <SCORE.INTRA>
0

>  <SCORE.INTRA.DIHEDRAL>
0

>  <SCORE.INTRA.DIHEDRAL.0>
0

>  <SCORE.INTRA.POLAR>
0

>  <SCORE.INTRA.POLAR.0>
0

>  <SCORE.INTRA.REPUL>
0

>  <SCORE.INTRA.REPUL.0>
0

>  <SCORE.INTRA.SOLV>
0

>  <SCORE.INTRA.SOLV.lig_0>
-48.1583

>  <SCORE.INTRA.VDW>
0

>  <SCORE.INTRA.VDW.0>
0

>  <SCORE.INTRA.norm>
0

>  <SCORE.RESTR>
0

>  <SCORE.RESTR.CAVITY>
0

>  <SCORE.RESTR.norm>
0

>  <SCORE.SYSTEM>
0

>  <SCORE.SYSTEM.CONST>
0

>  <SCORE.SYSTEM.DIHEDRAL>
0

>  <SCORE.SYSTEM.SOLV>
0

>  <SCORE.SYSTEM.norm>
0

>  <SCORE.heavy>
12

>  <SCORE.norm>
-1.25262

>  <RMSD>
3.064

$$$$
ligand
 OpenBabel02271912143D
libRbt.so/2013.1/901 2013/11/27
 12 13  0  0  0  0  0  0  0  0999 V2000
    4.6494   15.4342    4.0093 C   0  0  0  0  0  0  0  0  0  0  0  0
    5.9814   17.0328    2.9579 C   0  0  0  0  0  0  0  0  0  0  0  0
    3.9718   14.2918    3.9411 N   0  0  0  0  0  0  0  0  0  0  0  0
    6.6043   17.5360    1.8866 N   0  0  0  0  0  0  0  0  0  0  0  0
    5.2727   15.8972    2.9037 N   0  0  0  0  0  0  0  0  0  0  0  0
    4.7264   16.0971    5.1845 N   0  0  0  0  0  0  0  0  0  0  0  0
    6.8585   19.6336    5.4346 N   0  0  0  0  0  0  0  0  0  0  0  0
    6.2026   19.1190    6.5635 C   0  0  0  0  0  0  0  0  0  0  0  0
    5.4680   17.9142    6.4666 N   0  0  0  0  0  0  0  0  0  0  0  0
    5.4226   17.2567    5.2878 C   0  0  0  0  0  0  0  0  0  0  0  0
    6.0803   17.7502    4.1564 C   0  0  0  0  0  0  0  0  0  0  0  0
    6.8046   18.9396    4.2096 C   0  0  0  0  0  0  0  0  0  0  0  0
  1  3  1  0  0  0  0
  1  5  1  0  0  0  0
  1  6  2  0  0  0  0
  2  5  2  0  0  0  0
  2 11  1  0  0  0  0
  2  4  1  0  0  0  0
  6 10  1  0  0  0  0
  7  8  2  0  0  0  0
  7 12  1  0  0  0  0
  8  9  1  0  0  0  0
  9 10  2  0  0  0  0
 10 11  1  0  0  0  0
 11 12  2  0  0  0  0
M  END
>  <CHROM.1>
5.65589963,17.21525861,4.40804910,2.28414098,-0.96395327,-2.01669983

>  <Name>
ligand

>  <RI>
0

>  <Rbt.Current_Directory>
/home/itssahil/PROJECTS/Mol_Feturizer/Test_systems_manuscript/rnas/4lx5

>  <Rbt.Executable>
rbdock ($Id: //depot/dev/client3/rdock/2013.1/src/exe/rbdock.cxx#4 $)

>  <Rbt.Library>
libRbt.so (2013.1, Build901 2013/11/27)

>  <Rbt.Parameter_File>
/export/apps/rDock/src/rDock_2013.1_src/data/scripts/dock_solv.prm

>  <Rbt.Receptor>
prm/pocket_docking_3.prm

>  <SCORE>
-15.0383

>  <SCORE.INTER>
-15.0383

>  <SCORE.INTER.CONST>
1

>  <SCORE.INTER.POLAR>
0

>  <SCORE.INTER.ROT>
0

>  <SCORE.INTER.SOLV>
15.4153

>  <SCORE.INTER.VDW>
-18.7639

>  <SCORE.INTER.norm>
-1.25319

>  <SCORE.INTRA>
0

>  <SCORE.INTRA.DIHEDRAL>
0

>  <SCORE.INTRA.DIHEDRAL.0>
0

>  <SCORE.INTRA.POLAR>
0

>  <SCORE.INTRA.POLAR.0>
0

>  <SCORE.INTRA.REPUL>
0

>  <SCORE.INTRA.REPUL.0>
0

>  <SCORE.INTRA.SOLV>
0

>  <SCORE.INTRA.SOLV.lig_0>
-48.1583

>  <SCORE.INTRA.VDW>
0

>  <SCORE.INTRA.VDW.0>
0

>  <SCORE.INTRA.norm>
0

>  <SCORE.RESTR>
0

>  <SCORE.RESTR.CAVITY>
0

>  <SCORE.RESTR.norm>
0

>  <SCORE.SYSTEM>
0

>  <SCORE.SYSTEM.CONST>
0

>  <SCORE.SYSTEM.DIHEDRAL>
0

>  <SCORE.SYSTEM.SOLV>
0

>  <SCORE.SYSTEM.norm>
0

>  <SCORE.heavy>
12

>  <SCORE.norm>
-1.25319

>  <RMSD>
3.064

$$$$
ligand
 OpenBabel02271912143D
libRbt.so/2013.1/901 2013/11/27
 12 13  0  0  0  0  0  0  0  0999 V2000
    4.4711   15.2845    3.8888 C   0  0  0  0  0  0  0  0  0  0  0  0
    5.7219   16.9412    2.8278 C   0  0  0  0  0  0  0  0  0  0  0  0
    3.7975   14.1402    3.8123 N   0  0  0  0  0  0  0  0  0  0  0  0
    6.2705   17.4983    1.7426 N   0  0  0  0  0  0  0  0  0  0  0  0
    5.0181   15.8029    2.7676 N   0  0  0  0  0  0  0  0  0  0  0  0
    4.6207   15.8939    5.0859 N   0  0  0  0  0  0  0  0  0  0  0  0
    6.7430   19.4345    5.3593 N   0  0  0  0  0  0  0  0  0  0  0  0
    6.1653   18.8632    6.5036 C   0  0  0  0  0  0  0  0  0  0  0  0
    5.4333   17.6574    6.3992 N   0  0  0  0  0  0  0  0  0  0  0  0
    5.3150   17.0538    5.1969 C   0  0  0  0  0  0  0  0  0  0  0  0
    5.8945   17.6042    4.0491 C   0  0  0  0  0  0  0  0  0  0  0  0
    6.6135   18.7965    4.1097 C   0  0  0  0  0  0  0  0  0  0  0  0
  1  3  1  0  0  0  0
  1  5  1  0  0  0  0
  1  6  2  0  0  0  0
  2  5  2  0  0  0  0
  2 11  1  0  0  0  0
  2  4  1  0  0  0  0
  6 10  1  0  0  0  0
  7  8  2  0  0  0  0
  7 12  1  0  0  0  0
  8  9  1  0  0  0  0
  9 10  2  0  0  0  0
 10 11  1  0  0  0  0
 11 12  2  0  0  0  0
M  END
>  <CHROM.1>
5.49068453,17.05457110,4.30289642,2.38773524,-0.99520504,-1.88485279

>  <Name>
ligand

>  <RI>
0

>  <Rbt.Current_Directory>
/home/itssahil/PROJECTS/Mol_Feturizer/Test_systems_manuscript/rnas/4lx5

>  <Rbt.Executable>
rbdock ($Id: //depot/dev/client3/rdock/2013.1/src/exe/rbdock.cxx#4 $)

>  <Rbt.Library>
libRbt.so (2013.1, Build901 2013/11/27)

>  <Rbt.Parameter_File>
/export/apps/rDock/src/rDock_2013.1_src/data/scripts/dock_solv.prm

>  <Rbt.Receptor>
prm/pocket_docking_6.prm

>  <SCORE>
-14.6107

>  <SCORE.INTER>
-14.6107

>  <SCORE.INTER.CONST>
1

>  <SCORE.INTER.POLAR>
0

>  <SCORE.INTER.ROT>
0

>  <SCORE.INTER.SOLV>
14.398

>  <SCORE.INTER.VDW>
-18.1398

>  <SCORE.INTER.norm>
-1.21756

>  <SCORE.INTRA>
0

>  <SCORE.INTRA.DIHEDRAL>
0

>  <SCORE.INTRA.DIHEDRAL.0>
0

>  <SCORE.INTRA.POLAR>
0

>  <SCORE.INTRA.POLAR.0>
0

>  <SCORE.INTRA.REPUL>
0

>  <SCORE.INTRA.REPUL.0>
0

>  <SCORE.INTRA.SOLV>
0

>  <SCORE.INTRA.SOLV.lig_0>
-48.1583

>  <SCORE.INTRA.VDW>
0

>  <SCORE.INTRA.VDW.0>
0

>  <SCORE.INTRA.norm>
0

>  <SCORE.RESTR>
0

>  <SCORE.RESTR.CAVITY>
0

>  <SCORE.RESTR.norm>
0

>  <SCORE.SYSTEM>
0

>  <SCORE.SYSTEM.CONST>
0

>  <SCORE.SYSTEM.DIHEDRAL>
0

>  <SCORE.SYSTEM.SOLV>
0

>  <SCORE.SYSTEM.norm>
0

>  <SCORE.heavy>
12

>  <SCORE.norm>
-1.21756

>  <RMSD>
3.064

$$$$
ligand
 OpenBabel02271912143D
libRbt.so/2013.1/901 2013/11/27
 12 13  0  0  0  0  0  0  0  0999 V2000
    4.6434   15.4372    4.0111 C   0  0  0  0  0  0  0  0  0  0  0  0
    5.9788   17.0297    2.9549 C   0  0  0  0  0  0  0  0  0  0  0  0
    3.9610   14.2975    3.9456 N   0  0  0  0  0  0  0  0  0  0  0  0
    6.6006   17.5298    1.8815 N   0  0  0  0  0  0  0  0  0  0  0  0
    5.2654   15.8969    2.9034 N   0  0  0  0  0  0  0  0  0  0  0  0
    4.7266   16.1005    5.1858 N   0  0  0  0  0  0  0  0  0  0  0  0
    6.8737   19.6284    5.4274 N   0  0  0  0  0  0  0  0  0  0  0  0
    6.2190   19.1172    6.5586 C   0  0  0  0  0  0  0  0  0  0  0  0
    5.4792   17.9153    6.4645 N   0  0  0  0  0  0  0  0  0  0  0  0
    5.4277   17.2573    5.2862 C   0  0  0  0  0  0  0  0  0  0  0  0
    6.0841   17.7474    4.1527 C   0  0  0  0  0  0  0  0  0  0  0  0
    6.8134   18.9340    4.2029 C   0  0  0  0  0  0  0  0  0  0  0  0
  1  3  1  0  0  0  0
  1  5  1  0  0  0  0
  1  6  2  0  0  0  0
  2  5  2  0  0  0  0
  2 11  1  0  0  0  0
  2  4  1  0  0  0  0
  6 10  1  0  0  0  0
  7  8  2  0  0  0  0
  7 12  1  0  0  0  0
  8  9  1  0  0  0  0
  9 10  2  0  0  0  0
 10 11  1  0  0  0  0
 11 12  2  0  0  0  0
M  END
>  <CHROM.1>
5.65830533,17.21437885,4.40587210,2.29180511,-0.96154813,-2.01102845

>  <Name>
ligand

>  <RI>
0

>  <Rbt.Current_Directory>
/home/itssahil/PROJECTS/Mol_Feturizer/Test_systems_manuscript/rnas/4lx5

>  <Rbt.Executable>
rbdock ($Id: //depot/dev/client3/rdock/2013.1/src/exe/rbdock.cxx#4 $)

>  <Rbt.Library>
libRbt.so (2013.1, Build901 2013/11/27)

>  <Rbt.Parameter_File>
/export/apps/rDock/src/rDock_2013.1_src/data/scripts/dock_solv.prm

>  <Rbt.Receptor>
prm/pocket_docking_7.prm

>  <SCORE>
-15.0437

>  <SCORE.INTER>
-15.0437

>  <SCORE.INTER.CONST>
1

>  <SCORE.INTER.POLAR>
0

>  <SCORE.INTER.ROT>
0

>  <SCORE.INTER.SOLV>
15.3575

>  <SCORE.INTER.VDW>
-18.7483

>  <SCORE.INTER.norm>
-1.25365

>  <SCORE.INTRA>
0

>  <SCORE.INTRA.DIHEDRAL>
0

>  <SCORE.INTRA.DIHEDRAL.0>
0

>  <SCORE.INTRA.POLAR>
0

>  <SCORE.INTRA.POLAR.0>
0

>  <SCORE.INTRA.REPUL>
0

>  <SCORE.INTRA.REPUL.0>
0

>  <SCORE.INTRA.SOLV>
0

>  <SCORE.INTRA.SOLV.lig_0>
-48.1583

>  <SCORE.INTRA.VDW>
0

>  <SCORE.INTRA.VDW.0>
0

>  <SCORE.INTRA.norm>
0

>  <SCORE.RESTR>
0

>  <SCORE.RESTR.CAVITY>
0

>  <SCORE.RESTR.norm>
0

>  <SCORE.SYSTEM>
0

>  <SCORE.SYSTEM.CONST>
0

>  <SCORE.SYSTEM.DIHEDRAL>
0

>  <SCORE.SYSTEM.SOLV>
0

>  <SCORE.SYSTEM.norm>
0

>  <SCORE.heavy>
12

>  <SCORE.norm>
-1.25365

>  <RMSD>
3.065

$$$$
ligand
 OpenBabel02271912143D
libRbt.so/2013.1/901 2013/11/27
 12 13  0  0  0  0  0  0  0  0999 V2000
    4.6535   15.4467    4.0043 C   0  0  0  0  0  0  0  0  0  0  0  0
    6.0495   17.0117    2.9861 C   0  0  0  0  0  0  0  0  0  0  0  0
    3.9559   14.3174    3.9215 N   0  0  0  0  0  0  0  0  0  0  0  0
    6.7160   17.4955    1.9322 N   0  0  0  0  0  0  0  0  0  0  0  0
    5.3206   15.8899    2.9163 N   0  0  0  0  0  0  0  0  0  0  0  0
    4.7062   16.1159    5.1773 N   0  0  0  0  0  0  0  0  0  0  0  0
    6.8988   19.6116    5.4735 N   0  0  0  0  0  0  0  0  0  0  0  0
    6.1973   19.1176    6.5841 C   0  0  0  0  0  0  0  0  0  0  0  0
    5.4425   17.9268    6.4712 N   0  0  0  0  0  0  0  0  0  0  0  0
    5.4215   17.2623    5.2956 C   0  0  0  0  0  0  0  0  0  0  0  0
    6.1245   17.7352    4.1827 C   0  0  0  0  0  0  0  0  0  0  0  0
    6.8702   18.9106    4.2517 C   0  0  0  0  0  0  0  0  0  0  0  0
  1  3  1  0  0  0  0
  1  5  1  0  0  0  0
  1  6  2  0  0  0  0
  2  5  2  0  0  0  0
  2 11  1  0  0  0  0
  2  4  1  0  0  0  0
  6 10  1  0  0  0  0
  7  8  2  0  0  0  0
  7 12  1  0  0  0  0
  8  9  1  0  0  0  0
  9 10  2  0  0  0  0
 10 11  1  0  0  0  0
 11 12  2  0  0  0  0
M  END
>  <CHROM.1>
5.68182905,17.21038685,4.42400241,2.25038741,-0.93211976,-2.05057327

>  <Name>
ligand

>  <RI>
0

>  <Rbt.Current_Directory>
/home/itssahil/PROJECTS/Mol_Feturizer/Test_systems_manuscript/rnas/4lx5

>  <Rbt.Executable>
rbdock ($Id: //depot/dev/client3/rdock/2013.1/src/exe/rbdock.cxx#4 $)

>  <Rbt.Library>
libRbt.so (2013.1, Build901 2013/11/27)

>  <Rbt.Parameter_File>
/export/apps/rDock/src/rDock_2013.1_src/data/scripts/dock_solv.prm

>  <Rbt.Receptor>
prm/pocket_docking_8.prm

>  <SCORE>
-15.0423

>  <SCORE.INTER>
-15.0423

>  <SCORE.INTER.CONST>
1

>  <SCORE.INTER.POLAR>
0

>  <SCORE.INTER.ROT>
0

>  <SCORE.INTER.SOLV>
15.445

>  <SCORE.INTER.VDW>
-18.7765

>  <SCORE.INTER.norm>
-1.25353

>  <SCORE.INTRA>
0

>  <SCORE.INTRA.DIHEDRAL>
0

>  <SCORE.INTRA.DIHEDRAL.0>
0

>  <SCORE.INTRA.POLAR>
0

>  <SCORE.INTRA.POLAR.0>
0

>  <SCORE.INTRA.REPUL>
0

>  <SCORE.INTRA.REPUL.0>
0

>  <SCORE.INTRA.SOLV>
0

>  <SCORE.INTRA.SOLV.lig_0>
-48.1583

>  <SCORE.INTRA.VDW>
0

>  <SCORE.INTRA.VDW.0>
0

>  <SCORE.INTRA.norm>
0

>  <SCORE.RESTR>
0

>  <SCORE.RESTR.CAVITY>
0

>  <SCORE.RESTR.norm>
0

>  <SCORE.SYSTEM>
0

>  <SCORE.SYSTEM.CONST>
0

>  <SCORE.SYSTEM.DIHEDRAL>
0

>  <SCORE.SYSTEM.SOLV>
0

>  <SCORE.SYSTEM.norm>
0

>  <SCORE.heavy>
12

>  <SCORE.norm>
-1.25353

>  <RMSD>
3.065

$$$$
ligand
 OpenBabel02271912143D
libRbt.so/2013.1/901 2013/11/27
 12 13  0  0  0  0  0  0  0  0999 V2000
    4.6614   15.4497    4.0145 C   0  0  0  0  0  0  0  0  0  0  0  0
    6.0202   17.0372    2.9809 C   0  0  0  0  0  0  0  0  0  0  0  0
    3.9737   14.3140    3.9367 N   0  0  0  0  0  0  0  0  0  0  0  0
    6.6596   17.5365    1.9175 N   0  0  0  0  0  0  0  0  0  0  0  0
    5.3012   15.9087    2.9167 N   0  0  0  0  0  0  0  0  0  0  0  0
    4.7320   16.1096    5.1919 N   0  0  0  0  0  0  0  0  0  0  0  0
    6.8952   19.6248    5.4721 N   0  0  0  0  0  0  0  0  0  0  0  0
    6.2221   19.1146    6.5928 C   0  0  0  0  0  0  0  0  0  0  0  0
    5.4770   17.9171    6.4855 N   0  0  0  0  0  0  0  0  0  0  0  0
    5.4381   17.2622    5.3050 C   0  0  0  0  0  0  0  0  0  0  0  0
    6.1129   17.7514    4.1818 C   0  0  0  0  0  0  0  0  0  0  0  0
    6.8481   18.9337    4.2452 C   0  0  0  0  0  0  0  0  0  0  0  0
  1  3  1  0  0  0  0
  1  5  1  0  0  0  0
  1  6  2  0  0  0  0
  2  5  2  0  0  0  0
  2 11  1  0  0  0  0
  2  4  1  0  0  0  0
  6 10  1  0  0  0  0
  7  8  2  0  0  0  0
  7 12  1  0  0  0  0
  8  9  1  0  0  0  0
  9 10  2  0  0  0  0
 10 11  1  0  0  0  0
 11 12  2  0  0  0  0
M  END
>  <CHROM.1>
5.68066037,17.22016704,4.42777387,2.27433551,-0.95051597,-2.02280333

>  <Name>
ligand

>  <RI>
0

>  <Rbt.Current_Directory>
/home/itssahil/PROJECTS/Mol_Feturizer/Test_systems_manuscript/rnas/4lx5

>  <Rbt.Executable>
rbdock ($Id: //depot/dev/client3/rdock/2013.1/src/exe/rbdock.cxx#4 $)

>  <Rbt.Library>
libRbt.so (2013.1, Build901 2013/11/27)

>  <Rbt.Parameter_File>
/export/apps/rDock/src/rDock_2013.1_src/data/scripts/dock_solv.prm

>  <Rbt.Receptor>
prm/blind_docking_100.prm

>  <SCORE>
-15.0152

>  <SCORE.INTER>
-15.0152

>  <SCORE.INTER.CONST>
1

>  <SCORE.INTER.POLAR>
0

>  <SCORE.INTER.ROT>
0

>  <SCORE.INTER.SOLV>
15.4463

>  <SCORE.INTER.VDW>
-18.7589

>  <SCORE.INTER.norm>
-1.25127

>  <SCORE.INTRA>
0

>  <SCORE.INTRA.DIHEDRAL>
0

>  <SCORE.INTRA.DIHEDRAL.0>
0

>  <SCORE.INTRA.POLAR>
0

>  <SCORE.INTRA.POLAR.0>
0

>  <SCORE.INTRA.REPUL>
0

>  <SCORE.INTRA.REPUL.0>
0

>  <SCORE.INTRA.SOLV>
0

>  <SCORE.INTRA.SOLV.lig_0>
-48.1583

>  <SCORE.INTRA.VDW>
0

>  <SCORE.INTRA.VDW.0>
0

>  <SCORE.INTRA.norm>
0

>  <SCORE.RESTR>
0

>  <SCORE.RESTR.CAVITY>
0

>  <SCORE.RESTR.norm>
0

>  <SCORE.SYSTEM>
0

>  <SCORE.SYSTEM.CONST>
0

>  <SCORE.SYSTEM.DIHEDRAL>
0

>  <SCORE.SYSTEM.SOLV>
0

>  <SCORE.SYSTEM.norm>
0

>  <SCORE.heavy>
12

>  <SCORE.norm>
-1.25127

>  <RMSD>
3.066

$$$$
ligand
 OpenBabel02271912143D
libRbt.so/2013.1/901 2013/11/27
 12 13  0  0  0  0  0  0  0  0999 V2000
    4.6488   15.4196    4.0171 C   0  0  0  0  0  0  0  0  0  0  0  0
    5.9818   17.0086    2.9527 C   0  0  0  0  0  0  0  0  0  0  0  0
    3.9693   14.2778    3.9579 N   0  0  0  0  0  0  0  0  0  0  0  0
    6.6040   17.5034    1.8770 N   0  0  0  0  0  0  0  0  0  0  0  0
    5.2712   15.8738    2.9074 N   0  0  0  0  0  0  0  0  0  0  0  0
    4.7286   16.0906    5.1876 N   0  0  0  0  0  0  0  0  0  0  0  0
    6.8667   19.6253    5.4099 N   0  0  0  0  0  0  0  0  0  0  0  0
    6.2115   19.1197    6.5433 C   0  0  0  0  0  0  0  0  0  0  0  0
    5.4749   17.9154    6.4558 N   0  0  0  0  0  0  0  0  0  0  0  0
    5.4267   17.2497    5.2817 C   0  0  0  0  0  0  0  0  0  0  0  0
    6.0836   17.7342    4.1460 C   0  0  0  0  0  0  0  0  0  0  0  0
    6.8099   18.9229    4.1898 C   0  0  0  0  0  0  0  0  0  0  0  0
  1  3  1  0  0  0  0
  1  5  1  0  0  0  0
  1  6  2  0  0  0  0
  2  5  2  0  0  0  0
  2 11  1  0  0  0  0
  2  4  1  0  0  0  0
  6 10  1  0  0  0  0
  7  8  2  0  0  0  0
  7 12  1  0  0  0  0
  8  9  1  0  0  0  0
  9 10  2  0  0  0  0
 10 11  1  0  0  0  0
 11 12  2  0  0  0  0
M  END
>  <CHROM.1>
5.65869975,17.20175137,4.40199282,2.28764935,-0.96313462,-2.02081345

>  <Name>
ligand

>  <RI>
0

>  <Rbt.Current_Directory>
/home/itssahil/PROJECTS/Mol_Feturizer/Test_systems_manuscript/rnas/4lx5

>  <Rbt.Executable>
rbdock ($Id: //depot/dev/client3/rdock/2013.1/src/exe/rbdock.cxx#4 $)

>  <Rbt.Library>
libRbt.so (2013.1, Build901 2013/11/27)

>  <Rbt.Parameter_File>
/export/apps/rDock/src/rDock_2013.1_src/data/scripts/dock_solv.prm

>  <Rbt.Receptor>
prm/pocket_docking_5.prm

>  <SCORE>
-15.0349

>  <SCORE.INTER>
-15.0349

>  <SCORE.INTER.CONST>
1

>  <SCORE.INTER.POLAR>
0

>  <SCORE.INTER.ROT>
0

>  <SCORE.INTER.SOLV>
15.4261

>  <SCORE.INTER.VDW>
-18.7653

>  <SCORE.INTER.norm>
-1.25291

>  <SCORE.INTRA>
0

>  <SCORE.INTRA.DIHEDRAL>
0

>  <SCORE.INTRA.DIHEDRAL.0>
0

>  <SCORE.INTRA.POLAR>
0

>  <SCORE.INTRA.POLAR.0>
0

>  <SCORE.INTRA.REPUL>
0

>  <SCORE.INTRA.REPUL.0>
0

>  <SCORE.INTRA.SOLV>
0

>  <SCORE.INTRA.SOLV.lig_0>
-48.1583

>  <SCORE.INTRA.VDW>
0

>  <SCORE.INTRA.VDW.0>
0

>  <SCORE.INTRA.norm>
0

>  <SCORE.RESTR>
0

>  <SCORE.RESTR.CAVITY>
0

>  <SCORE.RESTR.norm>
0

>  <SCORE.SYSTEM>
0

>  <SCORE.SYSTEM.CONST>
0

>  <SCORE.SYSTEM.DIHEDRAL>
0

>  <SCORE.SYSTEM.SOLV>
0

>  <SCORE.SYSTEM.norm>
0

>  <SCORE.heavy>
12

>  <SCORE.norm>
-1.25291

>  <RMSD>
3.066

$$$$
ligand
 OpenBabel02271912143D
libRbt.so/2013.1/901 2013/11/27
 12 13  0  0  0  0  0  0  0  0999 V2000
    4.3289   15.6289    3.9185 C   0  0  0  0  0  0  0  0  0  0  0  0
    5.8416   17.0609    2.8717 C   0  0  0  0  0  0  0  0  0  0  0  0
    3.4884   14.6014    3.8366 N   0  0  0  0  0  0  0  0  0  0  0  0
    6.4915   17.5146    1.7942 N   0  0  0  0  0  0  0  0  0  0  0  0
    4.9719   16.0441    2.8053 N   0  0  0  0  0  0  0  0  0  0  0  0
    4.5466   16.2214    5.1136 N   0  0  0  0  0  0  0  0  0  0  0  0
    7.1841   19.3953    5.4047 N   0  0  0  0  0  0  0  0  0  0  0  0
    6.5021   18.9328    6.5407 C   0  0  0  0  0  0  0  0  0  0  0  0
    5.5950   17.8532    6.4301 N   0  0  0  0  0  0  0  0  0  0  0  0
    5.4093   17.2616    5.2304 C   0  0  0  0  0  0  0  0  0  0  0  0
    6.0898   17.7031    4.0911 C   0  0  0  0  0  0  0  0  0  0  0  0
    6.9829   18.7710    4.1577 C   0  0  0  0  0  0  0  0  0  0  0  0
  1  3  1  0  0  0  0
  1  5  1  0  0  0  0
  1  6  2  0  0  0  0
  2  5  2  0  0  0  0
  2 11  1  0  0  0  0
  2  4  1  0  0  0  0
  6 10  1  0  0  0  0
  7  8  2  0  0  0  0
  7 12  1  0  0  0  0
  8  9  1  0  0  0  0
  9 10  2  0  0  0  0
 10 11  1  0  0  0  0
 11 12  2  0  0  0  0
M  END
>  <CHROM.1>
5.60093722,17.22519593,4.34042023,2.43044704,-0.84102025,-1.86050094

>  <Name>
ligand

>  <RI>
0

>  <Rbt.Current_Directory>
/home/itssahil/PROJECTS/Mol_Feturizer/Test_systems_manuscript/rnas/4lx5

>  <Rbt.Executable>
rbdock ($Id: //depot/dev/client3/rdock/2013.1/src/exe/rbdock.cxx#4 $)

>  <Rbt.Library>
libRbt.so (2013.1, Build901 2013/11/27)

>  <Rbt.Parameter_File>
/export/apps/rDock/src/rDock_2013.1_src/data/scripts/dock_solv.prm

>  <Rbt.Receptor>
prm/pocket_docking_3.prm

>  <SCORE>
-14.2105

>  <SCORE.INTER>
-14.2105

>  <SCORE.INTER.CONST>
1

>  <SCORE.INTER.POLAR>
0

>  <SCORE.INTER.ROT>
0

>  <SCORE.INTER.SOLV>
13.2681

>  <SCORE.INTER.VDW>
-17.4964

>  <SCORE.INTER.norm>
-1.18421

>  <SCORE.INTRA>
0

>  <SCORE.INTRA.DIHEDRAL>
0

>  <SCORE.INTRA.DIHEDRAL.0>
0

>  <SCORE.INTRA.POLAR>
0

>  <SCORE.INTRA.POLAR.0>
0

>  <SCORE.INTRA.REPUL>
0

>  <SCORE.INTRA.REPUL.0>
0

>  <SCORE.INTRA.SOLV>
0

>  <SCORE.INTRA.SOLV.lig_0>
-48.1583

>  <SCORE.INTRA.VDW>
0

>  <SCORE.INTRA.VDW.0>
0

>  <SCORE.INTRA.norm>
0

>  <SCORE.RESTR>
0

>  <SCORE.RESTR.CAVITY>
0

>  <SCORE.RESTR.norm>
0

>  <SCORE.SYSTEM>
0

>  <SCORE.SYSTEM.CONST>
0

>  <SCORE.SYSTEM.DIHEDRAL>
0

>  <SCORE.SYSTEM.SOLV>
0

>  <SCORE.SYSTEM.norm>
0

>  <SCORE.heavy>
12

>  <SCORE.norm>
-1.18421

>  <RMSD>
3.067

$$$$
ligand
 OpenBabel02271912143D
libRbt.so/2013.1/901 2013/11/27
 12 13  0  0  0  0  0  0  0  0999 V2000
    4.6384   15.4069    4.0128 C   0  0  0  0  0  0  0  0  0  0  0  0
    5.9583   17.0064    2.9477 C   0  0  0  0  0  0  0  0  0  0  0  0
    3.9594   14.2649    3.9512 N   0  0  0  0  0  0  0  0  0  0  0  0
    6.5685   17.5109    1.8697 N   0  0  0  0  0  0  0  0  0  0  0  0
    5.2485   15.8712    2.9005 N   0  0  0  0  0  0  0  0  0  0  0  0
    4.7300   16.0681    5.1881 N   0  0  0  0  0  0  0  0  0  0  0  0
    6.8667   19.6032    5.4173 N   0  0  0  0  0  0  0  0  0  0  0  0
    6.2242   19.0873    6.5534 C   0  0  0  0  0  0  0  0  0  0  0  0
    5.4879   17.8830    6.4636 N   0  0  0  0  0  0  0  0  0  0  0  0
    5.4279   17.2272    5.2845 C   0  0  0  0  0  0  0  0  0  0  0  0
    6.0721   17.7220    4.1460 C   0  0  0  0  0  0  0  0  0  0  0  0
    6.7976   18.9110    4.1921 C   0  0  0  0  0  0  0  0  0  0  0  0
  1  3  1  0  0  0  0
  1  5  1  0  0  0  0
  1  6  2  0  0  0  0
  2  5  2  0  0  0  0
  2 11  1  0  0  0  0
  2  4  1  0  0  0  0
  6 10  1  0  0  0  0
  7  8  2  0  0  0  0
  7 12  1  0  0  0  0
  8  9  1  0  0  0  0
  9 10  2  0  0  0  0
 10 11  1  0  0  0  0
 11 12  2  0  0  0  0
M  END
>  <CHROM.1>
5.65049914,17.18692304,4.40197592,2.30382424,-0.96864325,-1.99906326

>  <Name>
ligand

>  <RI>
0

>  <Rbt.Current_Directory>
/home/itssahil/PROJECTS/Mol_Feturizer/Test_systems_manuscript/rnas/4lx5

>  <Rbt.Executable>
rbdock ($Id: //depot/dev/client3/rdock/2013.1/src/exe/rbdock.cxx#4 $)

>  <Rbt.Library>
libRbt.so (2013.1, Build901 2013/11/27)

>  <Rbt.Parameter_File>
/export/apps/rDock/src/rDock_2013.1_src/data/scripts/dock_solv.prm

>  <Rbt.Receptor>
prm/pocket_docking_7.prm

>  <SCORE>
-15.0299

>  <SCORE.INTER>
-15.0299

>  <SCORE.INTER.CONST>
1

>  <SCORE.INTER.POLAR>
0

>  <SCORE.INTER.ROT>
0

>  <SCORE.INTER.SOLV>
15.3276

>  <SCORE.INTER.VDW>
-18.7292

>  <SCORE.INTER.norm>
-1.2525

>  <SCORE.INTRA>
0

>  <SCORE.INTRA.DIHEDRAL>
0

>  <SCORE.INTRA.DIHEDRAL.0>
0

>  <SCORE.INTRA.POLAR>
0

>  <SCORE.INTRA.POLAR.0>
0

>  <SCORE.INTRA.REPUL>
0

>  <SCORE.INTRA.REPUL.0>
0

>  <SCORE.INTRA.SOLV>
0

>  <SCORE.INTRA.SOLV.lig_0>
-48.1583

>  <SCORE.INTRA.VDW>
0

>  <SCORE.INTRA.VDW.0>
0

>  <SCORE.INTRA.norm>
0

>  <SCORE.RESTR>
0

>  <SCORE.RESTR.CAVITY>
0

>  <SCORE.RESTR.norm>
0

>  <SCORE.SYSTEM>
0

>  <SCORE.SYSTEM.CONST>
0

>  <SCORE.SYSTEM.DIHEDRAL>
0

>  <SCORE.SYSTEM.SOLV>
0

>  <SCORE.SYSTEM.norm>
0

>  <SCORE.heavy>
12

>  <SCORE.norm>
-1.2525

>  <RMSD>
3.067

$$$$
ligand
 OpenBabel02271912143D
libRbt.so/2013.1/901 2013/11/27
 12 13  0  0  0  0  0  0  0  0999 V2000
    4.6645   15.4465    4.0201 C   0  0  0  0  0  0  0  0  0  0  0  0
    6.0490   17.0111    2.9855 C   0  0  0  0  0  0  0  0  0  0  0  0
    3.9687   14.3154    3.9467 N   0  0  0  0  0  0  0  0  0  0  0  0
    6.7059   17.4926    1.9246 N   0  0  0  0  0  0  0  0  0  0  0  0
    5.3219   15.8874    2.9253 N   0  0  0  0  0  0  0  0  0  0  0  0
    4.7252   16.1199    5.1904 N   0  0  0  0  0  0  0  0  0  0  0  0
    6.9125   19.6212    5.4571 N   0  0  0  0  0  0  0  0  0  0  0  0
    6.2210   19.1295    6.5750 C   0  0  0  0  0  0  0  0  0  0  0  0
    5.4679   17.9367    6.4721 N   0  0  0  0  0  0  0  0  0  0  0  0
    5.4389   17.2682    5.2990 C   0  0  0  0  0  0  0  0  0  0  0  0
    6.1319   17.7388    4.1790 C   0  0  0  0  0  0  0  0  0  0  0  0
    6.8756   18.9160    4.2379 C   0  0  0  0  0  0  0  0  0  0  0  0
  1  3  1  0  0  0  0
  1  5  1  0  0  0  0
  1  6  2  0  0  0  0
  2  5  2  0  0  0  0
  2 11  1  0  0  0  0
  2  4  1  0  0  0  0
  6 10  1  0  0  0  0
  7  8  2  0  0  0  0
  7 12  1  0  0  0  0
  8  9  1  0  0  0  0
  9 10  2  0  0  0  0
 10 11  1  0  0  0  0
 11 12  2  0  0  0  0
M  END
>  <CHROM.1>
5.69235603,17.21382640,4.42555426,2.26069440,-0.93771806,-2.04568907

>  <Name>
ligand

>  <RI>
0

>  <Rbt.Current_Directory>
/home/itssahil/PROJECTS/Mol_Feturizer/Test_systems_manuscript/rnas/4lx5

>  <Rbt.Executable>
rbdock ($Id: //depot/dev/client3/rdock/2013.1/src/exe/rbdock.cxx#4 $)

>  <Rbt.Library>
libRbt.so (2013.1, Build901 2013/11/27)

>  <Rbt.Parameter_File>
/export/apps/rDock/src/rDock_2013.1_src/data/scripts/dock_solv.prm

>  <Rbt.Receptor>
prm/pocket_docking_8.prm

>  <SCORE>
-15.0388

>  <SCORE.INTER>
-15.0388

>  <SCORE.INTER.CONST>
1

>  <SCORE.INTER.POLAR>
0

>  <SCORE.INTER.ROT>
0

>  <SCORE.INTER.SOLV>
15.5221

>  <SCORE.INTER.VDW>
-18.7999

>  <SCORE.INTER.norm>
-1.25323

>  <SCORE.INTRA>
0

>  <SCORE.INTRA.DIHEDRAL>
0

>  <SCORE.INTRA.DIHEDRAL.0>
0

>  <SCORE.INTRA.POLAR>
0

>  <SCORE.INTRA.POLAR.0>
0

>  <SCORE.INTRA.REPUL>
0

>  <SCORE.INTRA.REPUL.0>
0

>  <SCORE.INTRA.SOLV>
0

>  <SCORE.INTRA.SOLV.lig_0>
-48.1583

>  <SCORE.INTRA.VDW>
0

>  <SCORE.INTRA.VDW.0>
0

>  <SCORE.INTRA.norm>
0

>  <SCORE.RESTR>
0

>  <SCORE.RESTR.CAVITY>
0

>  <SCORE.RESTR.norm>
0

>  <SCORE.SYSTEM>
0

>  <SCORE.SYSTEM.CONST>
0

>  <SCORE.SYSTEM.DIHEDRAL>
0

>  <SCORE.SYSTEM.SOLV>
0

>  <SCORE.SYSTEM.norm>
0

>  <SCORE.heavy>
12

>  <SCORE.norm>
-1.25323

>  <RMSD>
3.067

$$$$
ligand
 OpenBabel02271912143D
libRbt.so/2013.1/901 2013/11/27
 12 13  0  0  0  0  0  0  0  0999 V2000
    4.6591   15.4692    4.0157 C   0  0  0  0  0  0  0  0  0  0  0  0
    6.0327   17.0538    2.9973 C   0  0  0  0  0  0  0  0  0  0  0  0
    3.9643   14.3385    3.9282 N   0  0  0  0  0  0  0  0  0  0  0  0
    6.6800   17.5550    1.9395 N   0  0  0  0  0  0  0  0  0  0  0  0
    5.3067   15.9303    2.9234 N   0  0  0  0  0  0  0  0  0  0  0  0
    4.7289   16.1218    5.1972 N   0  0  0  0  0  0  0  0  0  0  0  0
    6.9136   19.6211    5.5073 N   0  0  0  0  0  0  0  0  0  0  0  0
    6.2322   19.1088    6.6221 C   0  0  0  0  0  0  0  0  0  0  0  0
    5.4799   17.9168    6.5045 N   0  0  0  0  0  0  0  0  0  0  0  0
    5.4419   17.2691    5.3200 C   0  0  0  0  0  0  0  0  0  0  0  0
    6.1248   17.7604    4.2027 C   0  0  0  0  0  0  0  0  0  0  0  0
    6.8673   18.9375    4.2762 C   0  0  0  0  0  0  0  0  0  0  0  0
  1  3  1  0  0  0  0
  1  5  1  0  0  0  0
  1  6  2  0  0  0  0
  2  5  2  0  0  0  0
  2 11  1  0  0  0  0
  2  4  1  0  0  0  0
  6 10  1  0  0  0  0
  7  8  2  0  0  0  0
  7 12  1  0  0  0  0
  8  9  1  0  0  0  0
  9 10  2  0  0  0  0
 10 11  1  0  0  0  0
 11 12  2  0  0  0  0
M  END
>  <CHROM.1>
5.68802539,17.23053351,4.44366670,2.27246400,-0.94275678,-2.01850336

>  <Name>
ligand

>  <RI>
0

>  <Rbt.Current_Directory>
/home/itssahil/PROJECTS/Mol_Feturizer/Test_systems_manuscript/rnas/4lx5

>  <Rbt.Executable>
rbdock ($Id: //depot/dev/client3/rdock/2013.1/src/exe/rbdock.cxx#4 $)

>  <Rbt.Library>
libRbt.so (2013.1, Build901 2013/11/27)

>  <Rbt.Parameter_File>
/export/apps/rDock/src/rDock_2013.1_src/data/scripts/dock_solv.prm

>  <Rbt.Receptor>
prm/blind_docking_80.prm

>  <SCORE>
-14.9933

>  <SCORE.INTER>
-14.9933

>  <SCORE.INTER.CONST>
1

>  <SCORE.INTER.POLAR>
0

>  <SCORE.INTER.ROT>
0

>  <SCORE.INTER.SOLV>
15.3847

>  <SCORE.INTER.VDW>
-18.7238

>  <SCORE.INTER.norm>
-1.24944

>  <SCORE.INTRA>
0

>  <SCORE.INTRA.DIHEDRAL>
0

>  <SCORE.INTRA.DIHEDRAL.0>
0

>  <SCORE.INTRA.POLAR>
0

>  <SCORE.INTRA.POLAR.0>
0

>  <SCORE.INTRA.REPUL>
0

>  <SCORE.INTRA.REPUL.0>
0

>  <SCORE.INTRA.SOLV>
0

>  <SCORE.INTRA.SOLV.lig_0>
-48.1583

>  <SCORE.INTRA.VDW>
0

>  <SCORE.INTRA.VDW.0>
0

>  <SCORE.INTRA.norm>
0

>  <SCORE.RESTR>
0

>  <SCORE.RESTR.CAVITY>
0

>  <SCORE.RESTR.norm>
0

>  <SCORE.SYSTEM>
0

>  <SCORE.SYSTEM.CONST>
0

>  <SCORE.SYSTEM.DIHEDRAL>
0

>  <SCORE.SYSTEM.SOLV>
0

>  <SCORE.SYSTEM.norm>
0

>  <SCORE.heavy>
12

>  <SCORE.norm>
-1.24944

>  <RMSD>
3.068

$$$$
ligand
 OpenBabel02271912143D
libRbt.so/2013.1/901 2013/11/27
 12 13  0  0  0  0  0  0  0  0999 V2000
    4.5098   15.4093    3.9872 C   0  0  0  0  0  0  0  0  0  0  0  0
    5.8435   16.9547    2.8611 C   0  0  0  0  0  0  0  0  0  0  0  0
    3.7854   14.2943    3.9586 N   0  0  0  0  0  0  0  0  0  0  0  0
    6.4258   17.4333    1.7562 N   0  0  0  0  0  0  0  0  0  0  0  0
    5.0891   15.8477    2.8481 N   0  0  0  0  0  0  0  0  0  0  0  0
    4.6770   16.0686    5.1551 N   0  0  0  0  0  0  0  0  0  0  0  0
    6.9561   19.5190    5.2806 N   0  0  0  0  0  0  0  0  0  0  0  0
    6.3435   19.0303    6.4449 C   0  0  0  0  0  0  0  0  0  0  0  0
    5.5582   17.8551    6.3908 N   0  0  0  0  0  0  0  0  0  0  0  0
    5.4225   17.2001    5.2176 C   0  0  0  0  0  0  0  0  0  0  0  0
    6.0359   17.6676    4.0509 C   0  0  0  0  0  0  0  0  0  0  0  0
    6.8080   18.8278    4.0618 C   0  0  0  0  0  0  0  0  0  0  0  0
  1  3  1  0  0  0  0
  1  5  1  0  0  0  0
  1  6  2  0  0  0  0
  2  5  2  0  0  0  0
  2 11  1  0  0  0  0
  2  4  1  0  0  0  0
  6 10  1  0  0  0  0
  7  8  2  0  0  0  0
  7 12  1  0  0  0  0
  8  9  1  0  0  0  0
  9 10  2  0  0  0  0
 10 11  1  0  0  0  0
 11 12  2  0  0  0  0
M  END
>  <CHROM.1>
5.60543082,17.14960666,4.32652254,2.39835502,-0.94928038,-1.92429777

>  <Name>
ligand

>  <RI>
0

>  <Rbt.Current_Directory>
/home/itssahil/PROJECTS/Mol_Feturizer/Test_systems_manuscript/rnas/4lx5

>  <Rbt.Executable>
rbdock ($Id: //depot/dev/client3/rdock/2013.1/src/exe/rbdock.cxx#4 $)

>  <Rbt.Library>
libRbt.so (2013.1, Build901 2013/11/27)

>  <Rbt.Parameter_File>
/export/apps/rDock/src/rDock_2013.1_src/data/scripts/dock_solv.prm

>  <Rbt.Receptor>
prm/pocket_docking_6.prm

>  <SCORE>
-14.664

>  <SCORE.INTER>
-14.664

>  <SCORE.INTER.CONST>
1

>  <SCORE.INTER.POLAR>
0

>  <SCORE.INTER.ROT>
0

>  <SCORE.INTER.SOLV>
14.4743

>  <SCORE.INTER.VDW>
-18.2007

>  <SCORE.INTER.norm>
-1.222

>  <SCORE.INTRA>
0

>  <SCORE.INTRA.DIHEDRAL>
0

>  <SCORE.INTRA.DIHEDRAL.0>
0

>  <SCORE.INTRA.POLAR>
0

>  <SCORE.INTRA.POLAR.0>
0

>  <SCORE.INTRA.REPUL>
0

>  <SCORE.INTRA.REPUL.0>
0

>  <SCORE.INTRA.SOLV>
0

>  <SCORE.INTRA.SOLV.lig_0>
-48.1583

>  <SCORE.INTRA.VDW>
0

>  <SCORE.INTRA.VDW.0>
0

>  <SCORE.INTRA.norm>
0

>  <SCORE.RESTR>
0

>  <SCORE.RESTR.CAVITY>
0

>  <SCORE.RESTR.norm>
0

>  <SCORE.SYSTEM>
0

>  <SCORE.SYSTEM.CONST>
0

>  <SCORE.SYSTEM.DIHEDRAL>
0

>  <SCORE.SYSTEM.SOLV>
0

>  <SCORE.SYSTEM.norm>
0

>  <SCORE.heavy>
12

>  <SCORE.norm>
-1.222

>  <RMSD>
3.068

$$$$
ligand
 OpenBabel02271912143D
libRbt.so/2013.1/901 2013/11/27
 12 13  0  0  0  0  0  0  0  0999 V2000
    4.6500   15.4103    4.0318 C   0  0  0  0  0  0  0  0  0  0  0  0
    5.9638   17.0032    2.9494 C   0  0  0  0  0  0  0  0  0  0  0  0
    3.9740   14.2660    3.9820 N   0  0  0  0  0  0  0  0  0  0  0  0
    6.5706   17.4993    1.8656 N   0  0  0  0  0  0  0  0  0  0  0  0
    5.2569   15.8658    2.9140 N   0  0  0  0  0  0  0  0  0  0  0  0
    4.7421   16.0825    5.2007 N   0  0  0  0  0  0  0  0  0  0  0  0
    6.8700   19.6251    5.3932 N   0  0  0  0  0  0  0  0  0  0  0  0
    6.2310   19.1181    6.5352 C   0  0  0  0  0  0  0  0  0  0  0  0
    5.4977   17.9111    6.4579 N   0  0  0  0  0  0  0  0  0  0  0  0
    5.4372   17.2443    5.2851 C   0  0  0  0  0  0  0  0  0  0  0  0
    6.0780   17.7302    4.1408 C   0  0  0  0  0  0  0  0  0  0  0  0
    6.8005   18.9215    4.1745 C   0  0  0  0  0  0  0  0  0  0  0  0
  1  3  1  0  0  0  0
  1  5  1  0  0  0  0
  1  6  2  0  0  0  0
  2  5  2  0  0  0  0
  2 11  1  0  0  0  0
  2  4  1  0  0  0  0
  6 10  1  0  0  0  0
  7  8  2  0  0  0  0
  7 12  1  0  0  0  0
  8  9  1  0  0  0  0
  9 10  2  0  0  0  0
 10 11  1  0  0  0  0
 11 12  2  0  0  0  0
M  END
>  <CHROM.1>
5.65827367,17.19639993,4.40250538,2.30492541,-0.97178995,-2.00740416

>  <Name>
ligand

>  <RI>
0

>  <Rbt.Current_Directory>
/home/itssahil/PROJECTS/Mol_Feturizer/Test_systems_manuscript/rnas/4lx5

>  <Rbt.Executable>
rbdock ($Id: //depot/dev/client3/rdock/2013.1/src/exe/rbdock.cxx#4 $)

>  <Rbt.Library>
libRbt.so (2013.1, Build901 2013/11/27)

>  <Rbt.Parameter_File>
/export/apps/rDock/src/rDock_2013.1_src/data/scripts/dock_solv.prm

>  <Rbt.Receptor>
prm/blind_docking_100.prm

>  <SCORE>
-15.0747

>  <SCORE.INTER>
-15.0747

>  <SCORE.INTER.CONST>
1

>  <SCORE.INTER.POLAR>
0

>  <SCORE.INTER.ROT>
0

>  <SCORE.INTER.SOLV>
15.4311

>  <SCORE.INTER.VDW>
-18.7935

>  <SCORE.INTER.norm>
-1.25622

>  <SCORE.INTRA>
0

>  <SCORE.INTRA.DIHEDRAL>
0

>  <SCORE.INTRA.DIHEDRAL.0>
0

>  <SCORE.INTRA.POLAR>
0

>  <SCORE.INTRA.POLAR.0>
0

>  <SCORE.INTRA.REPUL>
0

>  <SCORE.INTRA.REPUL.0>
0

>  <SCORE.INTRA.SOLV>
0

>  <SCORE.INTRA.SOLV.lig_0>
-48.1583

>  <SCORE.INTRA.VDW>
0

>  <SCORE.INTRA.VDW.0>
0

>  <SCORE.INTRA.norm>
0

>  <SCORE.RESTR>
0

>  <SCORE.RESTR.CAVITY>
0

>  <SCORE.RESTR.norm>
0

>  <SCORE.SYSTEM>
0

>  <SCORE.SYSTEM.CONST>
0

>  <SCORE.SYSTEM.DIHEDRAL>
0

>  <SCORE.SYSTEM.SOLV>
0

>  <SCORE.SYSTEM.norm>
0

>  <SCORE.heavy>
12

>  <SCORE.norm>
-1.25622

>  <RMSD>
3.069

$$$$
ligand
 OpenBabel02271912143D
libRbt.so/2013.1/901 2013/11/27
 12 13  0  0  0  0  0  0  0  0999 V2000
    4.6577   15.4078    4.0345 C   0  0  0  0  0  0  0  0  0  0  0  0
    5.9908   16.9871    2.9556 C   0  0  0  0  0  0  0  0  0  0  0  0
    3.9752   14.2674    3.9846 N   0  0  0  0  0  0  0  0  0  0  0  0
    6.6102   17.4738    1.8747 N   0  0  0  0  0  0  0  0  0  0  0  0
    5.2772   15.8538    2.9198 N   0  0  0  0  0  0  0  0  0  0  0  0
    4.7434   16.0857    5.2006 N   0  0  0  0  0  0  0  0  0  0  0  0
    6.8910   19.6163    5.3937 N   0  0  0  0  0  0  0  0  0  0  0  0
    6.2387   19.1192    6.5326 C   0  0  0  0  0  0  0  0  0  0  0  0
    5.4988   17.9162    6.4551 N   0  0  0  0  0  0  0  0  0  0  0  0
    5.4447   17.2436    5.2852 C   0  0  0  0  0  0  0  0  0  0  0  0
    6.0986   17.7197    4.1442 C   0  0  0  0  0  0  0  0  0  0  0  0
    6.8280   18.9067    4.1781 C   0  0  0  0  0  0  0  0  0  0  0  0
  1  3  1  0  0  0  0
  1  5  1  0  0  0  0
  1  6  2  0  0  0  0
  2  5  2  0  0  0  0
  2 11  1  0  0  0  0
  2  4  1  0  0  0  0
  6 10  1  0  0  0  0
  7  8  2  0  0  0  0
  7 12  1  0  0  0  0
  8  9  1  0  0  0  0
  9 10  2  0  0  0  0
 10 11  1  0  0  0  0
 11 12  2  0  0  0  0
M  END
>  <CHROM.1>
5.67341004,17.18978214,4.40490540,2.29525612,-0.96248766,-2.02059945

>  <Name>
ligand

>  <RI>
0

>  <Rbt.Current_Directory>
/home/itssahil/PROJECTS/Mol_Feturizer/Test_systems_manuscript/rnas/4lx5

>  <Rbt.Executable>
rbdock ($Id: //depot/dev/client3/rdock/2013.1/src/exe/rbdock.cxx#4 $)

>  <Rbt.Library>
libRbt.so (2013.1, Build901 2013/11/27)

>  <Rbt.Parameter_File>
/export/apps/rDock/src/rDock_2013.1_src/data/scripts/dock_solv.prm

>  <Rbt.Receptor>
prm/blind_docking_100.prm

>  <SCORE>
-15.0474

>  <SCORE.INTER>
-15.0474

>  <SCORE.INTER.CONST>
1

>  <SCORE.INTER.POLAR>
0

>  <SCORE.INTER.ROT>
0

>  <SCORE.INTER.SOLV>
15.5006

>  <SCORE.INTER.VDW>
-18.7985

>  <SCORE.INTER.norm>
-1.25395

>  <SCORE.INTRA>
0

>  <SCORE.INTRA.DIHEDRAL>
0

>  <SCORE.INTRA.DIHEDRAL.0>
0

>  <SCORE.INTRA.POLAR>
0

>  <SCORE.INTRA.POLAR.0>
0

>  <SCORE.INTRA.REPUL>
0

>  <SCORE.INTRA.REPUL.0>
0

>  <SCORE.INTRA.SOLV>
0

>  <SCORE.INTRA.SOLV.lig_0>
-48.1583

>  <SCORE.INTRA.VDW>
0

>  <SCORE.INTRA.VDW.0>
0

>  <SCORE.INTRA.norm>
0

>  <SCORE.RESTR>
0

>  <SCORE.RESTR.CAVITY>
0

>  <SCORE.RESTR.norm>
0

>  <SCORE.SYSTEM>
0

>  <SCORE.SYSTEM.CONST>
0

>  <SCORE.SYSTEM.DIHEDRAL>
0

>  <SCORE.SYSTEM.SOLV>
0

>  <SCORE.SYSTEM.norm>
0

>  <SCORE.heavy>
12

>  <SCORE.norm>
-1.25395

>  <RMSD>
3.069

$$$$
ligand
 OpenBabel02271912143D
libRbt.so/2013.1/901 2013/11/27
 12 13  0  0  0  0  0  0  0  0999 V2000
    4.6536   15.4144    4.0326 C   0  0  0  0  0  0  0  0  0  0  0  0
    5.9645   17.0122    2.9539 C   0  0  0  0  0  0  0  0  0  0  0  0
    3.9791   14.2694    3.9801 N   0  0  0  0  0  0  0  0  0  0  0  0
    6.5700   17.5121    1.8711 N   0  0  0  0  0  0  0  0  0  0  0  0
    5.2591   15.8739    2.9157 N   0  0  0  0  0  0  0  0  0  0  0  0
    4.7453   16.0837    5.2032 N   0  0  0  0  0  0  0  0  0  0  0  0
    6.8681   19.6288    5.4042 N   0  0  0  0  0  0  0  0  0  0  0  0
    6.2305   19.1178    6.5452 C   0  0  0  0  0  0  0  0  0  0  0  0
    5.4988   17.9099    6.4651 N   0  0  0  0  0  0  0  0  0  0  0  0
    5.4387   17.2462    5.2904 C   0  0  0  0  0  0  0  0  0  0  0  0
    6.0782   17.7361    4.1471 C   0  0  0  0  0  0  0  0  0  0  0  0
    6.7990   18.9284    4.1837 C   0  0  0  0  0  0  0  0  0  0  0  0
  1  3  1  0  0  0  0
  1  5  1  0  0  0  0
  1  6  2  0  0  0  0
  2  5  2  0  0  0  0
  2 11  1  0  0  0  0
  2  4  1  0  0  0  0
  6 10  1  0  0  0  0
  7  8  2  0  0  0  0
  7 12  1  0  0  0  0
  8  9  1  0  0  0  0
  9 10  2  0  0  0  0
 10 11  1  0  0  0  0
 11 12  2  0  0  0  0
M  END
>  <CHROM.1>
5.65938862,17.20103058,4.40762903,2.30466402,-0.97331704,-2.00492801

>  <Name>
ligand

>  <RI>
0

>  <Rbt.Current_Directory>
/home/itssahil/PROJECTS/Mol_Feturizer/Test_systems_manuscript/rnas/4lx5

>  <Rbt.Executable>
rbdock ($Id: //depot/dev/client3/rdock/2013.1/src/exe/rbdock.cxx#4 $)

>  <Rbt.Library>
libRbt.so (2013.1, Build901 2013/11/27)

>  <Rbt.Parameter_File>
/export/apps/rDock/src/rDock_2013.1_src/data/scripts/dock_solv.prm

>  <Rbt.Receptor>
prm/blind_docking_80.prm

>  <SCORE>
-15.0755

>  <SCORE.INTER>
-15.0755

>  <SCORE.INTER.CONST>
1

>  <SCORE.INTER.POLAR>
0

>  <SCORE.INTER.ROT>
0

>  <SCORE.INTER.SOLV>
15.4487

>  <SCORE.INTER.VDW>
-18.7999

>  <SCORE.INTER.norm>
-1.25629

>  <SCORE.INTRA>
0

>  <SCORE.INTRA.DIHEDRAL>
0

>  <SCORE.INTRA.DIHEDRAL.0>
0

>  <SCORE.INTRA.POLAR>
0

>  <SCORE.INTRA.POLAR.0>
0

>  <SCORE.INTRA.REPUL>
0

>  <SCORE.INTRA.REPUL.0>
0

>  <SCORE.INTRA.SOLV>
0

>  <SCORE.INTRA.SOLV.lig_0>
-48.1583

>  <SCORE.INTRA.VDW>
0

>  <SCORE.INTRA.VDW.0>
0

>  <SCORE.INTRA.norm>
0

>  <SCORE.RESTR>
0

>  <SCORE.RESTR.CAVITY>
0

>  <SCORE.RESTR.norm>
0

>  <SCORE.SYSTEM>
0

>  <SCORE.SYSTEM.CONST>
0

>  <SCORE.SYSTEM.DIHEDRAL>
0

>  <SCORE.SYSTEM.SOLV>
0

>  <SCORE.SYSTEM.norm>
0

>  <SCORE.heavy>
12

>  <SCORE.norm>
-1.25629

>  <RMSD>
3.069

$$$$
ligand
 OpenBabel02271912143D
libRbt.so/2013.1/901 2013/11/27
 12 13  0  0  0  0  0  0  0  0999 V2000
    4.6460   15.4123    4.0315 C   0  0  0  0  0  0  0  0  0  0  0  0
    5.9632   17.0022    2.9488 C   0  0  0  0  0  0  0  0  0  0  0  0
    3.9678   14.2693    3.9821 N   0  0  0  0  0  0  0  0  0  0  0  0
    6.5713   17.4966    1.8650 N   0  0  0  0  0  0  0  0  0  0  0  0
    5.2540   15.8661    2.9137 N   0  0  0  0  0  0  0  0  0  0  0  0
    4.7391   16.0848    5.2002 N   0  0  0  0  0  0  0  0  0  0  0  0
    6.8739   19.6234    5.3917 N   0  0  0  0  0  0  0  0  0  0  0  0
    6.2336   19.1181    6.5338 C   0  0  0  0  0  0  0  0  0  0  0  0
    5.4979   17.9125    6.4569 N   0  0  0  0  0  0  0  0  0  0  0  0
    5.4364   17.2453    5.2842 C   0  0  0  0  0  0  0  0  0  0  0  0
    6.0784   17.7295    4.1399 C   0  0  0  0  0  0  0  0  0  0  0  0
    6.8033   18.9193    4.1733 C   0  0  0  0  0  0  0  0  0  0  0  0
  1  3  1  0  0  0  0
  1  5  1  0  0  0  0
  1  6  2  0  0  0  0
  2  5  2  0  0  0  0
  2 11  1  0  0  0  0
  2  4  1  0  0  0  0
  6 10  1  0  0  0  0
  7  8  2  0  0  0  0
  7 12  1  0  0  0  0
  8  9  1  0  0  0  0
  9 10  2  0  0  0  0
 10 11  1  0  0  0  0
 11 12  2  0  0  0  0
M  END
>  <CHROM.1>
5.65765051,17.19660119,4.40176851,2.30595411,-0.96991627,-2.00699026

>  <Name>
ligand

>  <RI>
0

>  <Rbt.Current_Directory>
/home/itssahil/PROJECTS/Mol_Feturizer/Test_systems_manuscript/rnas/4lx5

>  <Rbt.Executable>
rbdock ($Id: //depot/dev/client3/rdock/2013.1/src/exe/rbdock.cxx#4 $)

>  <Rbt.Library>
libRbt.so (2013.1, Build901 2013/11/27)

>  <Rbt.Parameter_File>
/export/apps/rDock/src/rDock_2013.1_src/data/scripts/dock_solv.prm

>  <Rbt.Receptor>
prm/pocket_docking_3.prm

>  <SCORE>
-15.0734

>  <SCORE.INTER>
-15.0734

>  <SCORE.INTER.CONST>
1

>  <SCORE.INTER.POLAR>
0

>  <SCORE.INTER.ROT>
0

>  <SCORE.INTER.SOLV>
15.4007

>  <SCORE.INTER.VDW>
-18.7825

>  <SCORE.INTER.norm>
-1.25611

>  <SCORE.INTRA>
0

>  <SCORE.INTRA.DIHEDRAL>
0

>  <SCORE.INTRA.DIHEDRAL.0>
0

>  <SCORE.INTRA.POLAR>
0

>  <SCORE.INTRA.POLAR.0>
0

>  <SCORE.INTRA.REPUL>
0

>  <SCORE.INTRA.REPUL.0>
0

>  <SCORE.INTRA.SOLV>
0

>  <SCORE.INTRA.SOLV.lig_0>
-48.1583

>  <SCORE.INTRA.VDW>
0

>  <SCORE.INTRA.VDW.0>
0

>  <SCORE.INTRA.norm>
0

>  <SCORE.RESTR>
0

>  <SCORE.RESTR.CAVITY>
0

>  <SCORE.RESTR.norm>
0

>  <SCORE.SYSTEM>
0

>  <SCORE.SYSTEM.CONST>
0

>  <SCORE.SYSTEM.DIHEDRAL>
0

>  <SCORE.SYSTEM.SOLV>
0

>  <SCORE.SYSTEM.norm>
0

>  <SCORE.heavy>
12

>  <SCORE.norm>
-1.25611

>  <RMSD>
3.069

$$$$
ligand
 OpenBabel02271912143D
libRbt.so/2013.1/901 2013/11/27
 12 13  0  0  0  0  0  0  0  0999 V2000
    4.6537   15.4165    4.0336 C   0  0  0  0  0  0  0  0  0  0  0  0
    5.9629   17.0157    2.9549 C   0  0  0  0  0  0  0  0  0  0  0  0
    3.9793   14.2714    3.9807 N   0  0  0  0  0  0  0  0  0  0  0  0
    6.5667   17.5170    1.8718 N   0  0  0  0  0  0  0  0  0  0  0  0
    5.2576   15.8774    2.9164 N   0  0  0  0  0  0  0  0  0  0  0  0
    4.7471   16.0844    5.2049 N   0  0  0  0  0  0  0  0  0  0  0  0
    6.8698   19.6295    5.4070 N   0  0  0  0  0  0  0  0  0  0  0  0
    6.2338   19.1171    6.5483 C   0  0  0  0  0  0  0  0  0  0  0  0
    5.5022   17.9092    6.4678 N   0  0  0  0  0  0  0  0  0  0  0  0
    5.4405   17.2469    5.2925 C   0  0  0  0  0  0  0  0  0  0  0  0
    6.0782   17.7383    4.1488 C   0  0  0  0  0  0  0  0  0  0  0  0
    6.7989   18.9305    4.1858 C   0  0  0  0  0  0  0  0  0  0  0  0
  1  3  1  0  0  0  0
  1  5  1  0  0  0  0
  1  6  2  0  0  0  0
  2  5  2  0  0  0  0
  2 11  1  0  0  0  0
  2  4  1  0  0  0  0
  6 10  1  0  0  0  0
  7  8  2  0  0  0  0
  7 12  1  0  0  0  0
  8  9  1  0  0  0  0
  9 10  2  0  0  0  0
 10 11  1  0  0  0  0
 11 12  2  0  0  0  0
M  END
>  <CHROM.1>
5.65986780,17.20278918,4.40929926,2.30693781,-0.97404288,-2.00184090

>  <Name>
ligand

>  <RI>
0

>  <Rbt.Current_Directory>
/home/itssahil/PROJECTS/Mol_Feturizer/Test_systems_manuscript/rnas/4lx5

>  <Rbt.Executable>
rbdock ($Id: //depot/dev/client3/rdock/2013.1/src/exe/rbdock.cxx#4 $)

>  <Rbt.Library>
libRbt.so (2013.1, Build901 2013/11/27)

>  <Rbt.Parameter_File>
/export/apps/rDock/src/rDock_2013.1_src/data/scripts/dock_solv.prm

>  <Rbt.Receptor>
prm/pocket_docking_8.prm

>  <SCORE>
-15.076

>  <SCORE.INTER>
-15.076

>  <SCORE.INTER.CONST>
1

>  <SCORE.INTER.POLAR>
0

>  <SCORE.INTER.ROT>
0

>  <SCORE.INTER.SOLV>
15.4442

>  <SCORE.INTER.VDW>
-18.7987

>  <SCORE.INTER.norm>
-1.25633

>  <SCORE.INTRA>
0

>  <SCORE.INTRA.DIHEDRAL>
0

>  <SCORE.INTRA.DIHEDRAL.0>
0

>  <SCORE.INTRA.POLAR>
0

>  <SCORE.INTRA.POLAR.0>
0

>  <SCORE.INTRA.REPUL>
0

>  <SCORE.INTRA.REPUL.0>
0

>  <SCORE.INTRA.SOLV>
0

>  <SCORE.INTRA.SOLV.lig_0>
-48.1583

>  <SCORE.INTRA.VDW>
0

>  <SCORE.INTRA.VDW.0>
0

>  <SCORE.INTRA.norm>
0

>  <SCORE.RESTR>
0

>  <SCORE.RESTR.CAVITY>
0

>  <SCORE.RESTR.norm>
0

>  <SCORE.SYSTEM>
0

>  <SCORE.SYSTEM.CONST>
0

>  <SCORE.SYSTEM.DIHEDRAL>
0

>  <SCORE.SYSTEM.SOLV>
0

>  <SCORE.SYSTEM.norm>
0

>  <SCORE.heavy>
12

>  <SCORE.norm>
-1.25633

>  <RMSD>
3.069

$$$$
ligand
 OpenBabel02271912143D
libRbt.so/2013.1/901 2013/11/27
 12 13  0  0  0  0  0  0  0  0999 V2000
    4.6525   15.4247    4.0356 C   0  0  0  0  0  0  0  0  0  0  0  0
    5.9664   17.0216    2.9593 C   0  0  0  0  0  0  0  0  0  0  0  0
    3.9741   14.2821    3.9808 N   0  0  0  0  0  0  0  0  0  0  0  0
    6.5712   17.5232    1.8769 N   0  0  0  0  0  0  0  0  0  0  0  0
    5.2571   15.8859    2.9190 N   0  0  0  0  0  0  0  0  0  0  0  0
    4.7491   16.0897    5.2083 N   0  0  0  0  0  0  0  0  0  0  0  0
    6.8845   19.6269    5.4165 N   0  0  0  0  0  0  0  0  0  0  0  0
    6.2476   19.1142    6.5571 C   0  0  0  0  0  0  0  0  0  0  0  0
    5.5117   17.9091    6.4746 N   0  0  0  0  0  0  0  0  0  0  0  0
    5.4467   17.2495    5.2978 C   0  0  0  0  0  0  0  0  0  0  0  0
    6.0852   17.7412    4.1548 C   0  0  0  0  0  0  0  0  0  0  0  0
    6.8102   18.9308    4.1937 C   0  0  0  0  0  0  0  0  0  0  0  0
  1  3  1  0  0  0  0
  1  5  1  0  0  0  0
  1  6  2  0  0  0  0
  2  5  2  0  0  0  0
  2 11  1  0  0  0  0
  2  4  1  0  0  0  0
  6 10  1  0  0  0  0
  7  8  2  0  0  0  0
  7 12  1  0  0  0  0
  8  9  1  0  0  0  0
  9 10  2  0  0  0  0
 10 11  1  0  0  0  0
 11 12  2  0  0  0  0
M  END
>  <CHROM.1>
5.66522921,17.20660510,4.41441289,2.31082274,-0.97117910,-1.99645740

>  <Name>
ligand

>  <RI>
0

>  <Rbt.Current_Directory>
/home/itssahil/PROJECTS/Mol_Feturizer/Test_systems_manuscript/rnas/4lx5

>  <Rbt.Executable>
rbdock ($Id: //depot/dev/client3/rdock/2013.1/src/exe/rbdock.cxx#4 $)

>  <Rbt.Library>
libRbt.so (2013.1, Build901 2013/11/27)

>  <Rbt.Parameter_File>
/export/apps/rDock/src/rDock_2013.1_src/data/scripts/dock_solv.prm

>  <Rbt.Receptor>
prm/blind_docking_100.prm

>  <SCORE>
-15.0704

>  <SCORE.INTER>
-15.0704

>  <SCORE.INTER.CONST>
1

>  <SCORE.INTER.POLAR>
0

>  <SCORE.INTER.ROT>
0

>  <SCORE.INTER.SOLV>
15.4136

>  <SCORE.INTER.VDW>
-18.7848

>  <SCORE.INTER.norm>
-1.25587

>  <SCORE.INTRA>
0

>  <SCORE.INTRA.DIHEDRAL>
0

>  <SCORE.INTRA.DIHEDRAL.0>
0

>  <SCORE.INTRA.POLAR>
0

>  <SCORE.INTRA.POLAR.0>
0

>  <SCORE.INTRA.REPUL>
0

>  <SCORE.INTRA.REPUL.0>
0

>  <SCORE.INTRA.SOLV>
0

>  <SCORE.INTRA.SOLV.lig_0>
-48.1583

>  <SCORE.INTRA.VDW>
0

>  <SCORE.INTRA.VDW.0>
0

>  <SCORE.INTRA.norm>
0

>  <SCORE.RESTR>
0

>  <SCORE.RESTR.CAVITY>
0

>  <SCORE.RESTR.norm>
0

>  <SCORE.SYSTEM>
0

>  <SCORE.SYSTEM.CONST>
0

>  <SCORE.SYSTEM.DIHEDRAL>
0

>  <SCORE.SYSTEM.SOLV>
0

>  <SCORE.SYSTEM.norm>
0

>  <SCORE.heavy>
12

>  <SCORE.norm>
-1.25587

>  <RMSD>
3.070

$$$$
ligand
 OpenBabel02271912143D
libRbt.so/2013.1/901 2013/11/27
 12 13  0  0  0  0  0  0  0  0999 V2000
    4.6485   15.4220    4.0356 C   0  0  0  0  0  0  0  0  0  0  0  0
    5.9593   17.0203    2.9575 C   0  0  0  0  0  0  0  0  0  0  0  0
    3.9721   14.2782    3.9820 N   0  0  0  0  0  0  0  0  0  0  0  0
    6.5629   17.5219    1.8744 N   0  0  0  0  0  0  0  0  0  0  0  0
    5.2520   15.8832    2.9183 N   0  0  0  0  0  0  0  0  0  0  0  0
    4.7443   16.0882    5.2076 N   0  0  0  0  0  0  0  0  0  0  0  0
    6.8734   19.6294    5.4120 N   0  0  0  0  0  0  0  0  0  0  0  0
    6.2378   19.1166    6.5533 C   0  0  0  0  0  0  0  0  0  0  0  0
    5.5040   17.9101    6.4721 N   0  0  0  0  0  0  0  0  0  0  0  0
    5.4398   17.2494    5.2959 C   0  0  0  0  0  0  0  0  0  0  0  0
    6.0772   17.7411    4.1522 C   0  0  0  0  0  0  0  0  0  0  0  0
    6.8000   18.9321    4.1899 C   0  0  0  0  0  0  0  0  0  0  0  0
  1  3  1  0  0  0  0
  1  5  1  0  0  0  0
  1  6  2  0  0  0  0
  2  5  2  0  0  0  0
  2 11  1  0  0  0  0
  2  4  1  0  0  0  0
  6 10  1  0  0  0  0
  7  8  2  0  0  0  0
  7 12  1  0  0  0  0
  8  9  1  0  0  0  0
  9 10  2  0  0  0  0
 10 11  1  0  0  0  0
 11 12  2  0  0  0  0
M  END
>  <CHROM.1>
5.65818970,17.20604930,4.41246825,2.30997110,-0.97289987,-1.99806485

>  <Name>
ligand

>  <RI>
0

>  <Rbt.Current_Directory>
/home/itssahil/PROJECTS/Mol_Feturizer/Test_systems_manuscript/rnas/4lx5

>  <Rbt.Executable>
rbdock ($Id: //depot/dev/client3/rdock/2013.1/src/exe/rbdock.cxx#4 $)

>  <Rbt.Library>
libRbt.so (2013.1, Build901 2013/11/27)

>  <Rbt.Parameter_File>
/export/apps/rDock/src/rDock_2013.1_src/data/scripts/dock_solv.prm

>  <Rbt.Receptor>
prm/pocket_docking_3.prm

>  <SCORE>
-15.0733

>  <SCORE.INTER>
-15.0733

>  <SCORE.INTER.CONST>
1

>  <SCORE.INTER.POLAR>
0

>  <SCORE.INTER.ROT>
0

>  <SCORE.INTER.SOLV>
15.4001

>  <SCORE.INTER.VDW>
-18.7823

>  <SCORE.INTER.norm>
-1.25611

>  <SCORE.INTRA>
0

>  <SCORE.INTRA.DIHEDRAL>
0

>  <SCORE.INTRA.DIHEDRAL.0>
0

>  <SCORE.INTRA.POLAR>
0

>  <SCORE.INTRA.POLAR.0>
0

>  <SCORE.INTRA.REPUL>
0

>  <SCORE.INTRA.REPUL.0>
0

>  <SCORE.INTRA.SOLV>
0

>  <SCORE.INTRA.SOLV.lig_0>
-48.1583

>  <SCORE.INTRA.VDW>
0

>  <SCORE.INTRA.VDW.0>
0

>  <SCORE.INTRA.norm>
0

>  <SCORE.RESTR>
0

>  <SCORE.RESTR.CAVITY>
0

>  <SCORE.RESTR.norm>
0

>  <SCORE.SYSTEM>
0

>  <SCORE.SYSTEM.CONST>
0

>  <SCORE.SYSTEM.DIHEDRAL>
0

>  <SCORE.SYSTEM.SOLV>
0

>  <SCORE.SYSTEM.norm>
0

>  <SCORE.heavy>
12

>  <SCORE.norm>
-1.25611

>  <RMSD>
3.070

$$$$
ligand
 OpenBabel02271912143D
libRbt.so/2013.1/901 2013/11/27
 12 13  0  0  0  0  0  0  0  0999 V2000
    4.6504   15.3558    4.0243 C   0  0  0  0  0  0  0  0  0  0  0  0
    5.9346   16.9708    2.9392 C   0  0  0  0  0  0  0  0  0  0  0  0
    3.9883   14.2034    3.9743 N   0  0  0  0  0  0  0  0  0  0  0  0
    6.5257   17.4802    1.8528 N   0  0  0  0  0  0  0  0  0  0  0  0
    5.2417   15.8248    2.9038 N   0  0  0  0  0  0  0  0  0  0  0  0
    4.7443   16.0230    5.1959 N   0  0  0  0  0  0  0  0  0  0  0  0
    6.8292   19.5910    5.3890 N   0  0  0  0  0  0  0  0  0  0  0  0
    6.2066   19.0700    6.5338 C   0  0  0  0  0  0  0  0  0  0  0  0
    5.4878   17.8542    6.4564 N   0  0  0  0  0  0  0  0  0  0  0  0
    5.4254   17.1929    5.2806 C   0  0  0  0  0  0  0  0  0  0  0  0
    6.0500   17.6929    4.1334 C   0  0  0  0  0  0  0  0  0  0  0  0
    6.7578   18.8929    4.1672 C   0  0  0  0  0  0  0  0  0  0  0  0
  1  3  1  0  0  0  0
  1  5  1  0  0  0  0
  1  6  2  0  0  0  0
  2  5  2  0  0  0  0
  2 11  1  0  0  0  0
  2  4  1  0  0  0  0
  6 10  1  0  0  0  0
  7  8  2  0  0  0  0
  7 12  1  0  0  0  0
  8  9  1  0  0  0  0
  9 10  2  0  0  0  0
 10 11  1  0  0  0  0
 11 12  2  0  0  0  0
M  END
>  <CHROM.1>
5.63937565,17.15247279,4.39587360,2.30967946,-0.98683001,-1.99813712

>  <Name>
ligand

>  <RI>
0

>  <Rbt.Current_Directory>
/home/itssahil/PROJECTS/Mol_Feturizer/Test_systems_manuscript/rnas/4lx5

>  <Rbt.Executable>
rbdock ($Id: //depot/dev/client3/rdock/2013.1/src/exe/rbdock.cxx#4 $)

>  <Rbt.Library>
libRbt.so (2013.1, Build901 2013/11/27)

>  <Rbt.Parameter_File>
/export/apps/rDock/src/rDock_2013.1_src/data/scripts/dock_solv.prm

>  <Rbt.Receptor>
prm/pocket_docking_4.prm

>  <SCORE>
-15.004

>  <SCORE.INTER>
-15.004

>  <SCORE.INTER.CONST>
1

>  <SCORE.INTER.POLAR>
0

>  <SCORE.INTER.ROT>
0

>  <SCORE.INTER.SOLV>
15.4583

>  <SCORE.INTER.VDW>
-18.7554

>  <SCORE.INTER.norm>
-1.25033

>  <SCORE.INTRA>
0

>  <SCORE.INTRA.DIHEDRAL>
0

>  <SCORE.INTRA.DIHEDRAL.0>
0

>  <SCORE.INTRA.POLAR>
0

>  <SCORE.INTRA.POLAR.0>
0

>  <SCORE.INTRA.REPUL>
0

>  <SCORE.INTRA.REPUL.0>
0

>  <SCORE.INTRA.SOLV>
0

>  <SCORE.INTRA.SOLV.lig_0>
-48.1583

>  <SCORE.INTRA.VDW>
0

>  <SCORE.INTRA.VDW.0>
0

>  <SCORE.INTRA.norm>
0

>  <SCORE.RESTR>
0

>  <SCORE.RESTR.CAVITY>
0

>  <SCORE.RESTR.norm>
0

>  <SCORE.SYSTEM>
0

>  <SCORE.SYSTEM.CONST>
0

>  <SCORE.SYSTEM.DIHEDRAL>
0

>  <SCORE.SYSTEM.SOLV>
0

>  <SCORE.SYSTEM.norm>
0

>  <SCORE.heavy>
12

>  <SCORE.norm>
-1.25033

>  <RMSD>
3.070

$$$$
ligand
 OpenBabel02271912143D
libRbt.so/2013.1/901 2013/11/27
 12 13  0  0  0  0  0  0  0  0999 V2000
    4.6458   15.4123    4.0337 C   0  0  0  0  0  0  0  0  0  0  0  0
    5.9574   17.0084    2.9534 C   0  0  0  0  0  0  0  0  0  0  0  0
    3.9712   14.2672    3.9824 N   0  0  0  0  0  0  0  0  0  0  0  0
    6.5635   17.5068    1.8702 N   0  0  0  0  0  0  0  0  0  0  0  0
    5.2519   15.8702    2.9164 N   0  0  0  0  0  0  0  0  0  0  0  0
    4.7372   16.0830    5.2035 N   0  0  0  0  0  0  0  0  0  0  0  0
    6.8606   19.6280    5.4007 N   0  0  0  0  0  0  0  0  0  0  0  0
    6.2224   19.1186    6.5421 C   0  0  0  0  0  0  0  0  0  0  0  0
    5.4906   17.9108    6.4632 N   0  0  0  0  0  0  0  0  0  0  0  0
    5.4308   17.2455    5.2894 C   0  0  0  0  0  0  0  0  0  0  0  0
    6.0708   17.7339    4.1457 C   0  0  0  0  0  0  0  0  0  0  0  0
    6.7918   18.9260    4.1810 C   0  0  0  0  0  0  0  0  0  0  0  0
  1  3  1  0  0  0  0
  1  5  1  0  0  0  0
  1  6  2  0  0  0  0
  2  5  2  0  0  0  0
  2 11  1  0  0  0  0
  2  4  1  0  0  0  0
  6 10  1  0  0  0  0
  7  8  2  0  0  0  0
  7 12  1  0  0  0  0
  8  9  1  0  0  0  0
  9 10  2  0  0  0  0
 10 11  1  0  0  0  0
 11 12  2  0  0  0  0
M  END
>  <CHROM.1>
5.65181197,17.19918003,4.40677697,2.30415108,-0.97299850,-2.00664504

>  <Name>
ligand

>  <RI>
0

>  <Rbt.Current_Directory>
/home/itssahil/PROJECTS/Mol_Feturizer/Test_systems_manuscript/rnas/4lx5

>  <Rbt.Executable>
rbdock ($Id: //depot/dev/client3/rdock/2013.1/src/exe/rbdock.cxx#4 $)

>  <Rbt.Library>
libRbt.so (2013.1, Build901 2013/11/27)

>  <Rbt.Parameter_File>
/export/apps/rDock/src/rDock_2013.1_src/data/scripts/dock_solv.prm

>  <Rbt.Receptor>
prm/pocket_docking_4.prm

>  <SCORE>
-15.0727

>  <SCORE.INTER>
-15.0727

>  <SCORE.INTER.CONST>
1

>  <SCORE.INTER.POLAR>
0

>  <SCORE.INTER.ROT>
0

>  <SCORE.INTER.SOLV>
15.4067

>  <SCORE.INTER.VDW>
-18.784

>  <SCORE.INTER.norm>
-1.25606

>  <SCORE.INTRA>
0

>  <SCORE.INTRA.DIHEDRAL>
0

>  <SCORE.INTRA.DIHEDRAL.0>
0

>  <SCORE.INTRA.POLAR>
0

>  <SCORE.INTRA.POLAR.0>
0

>  <SCORE.INTRA.REPUL>
0

>  <SCORE.INTRA.REPUL.0>
0

>  <SCORE.INTRA.SOLV>
0

>  <SCORE.INTRA.SOLV.lig_0>
-48.1583

>  <SCORE.INTRA.VDW>
0

>  <SCORE.INTRA.VDW.0>
0

>  <SCORE.INTRA.norm>
0

>  <SCORE.RESTR>
0

>  <SCORE.RESTR.CAVITY>
0

>  <SCORE.RESTR.norm>
0

>  <SCORE.SYSTEM>
0

>  <SCORE.SYSTEM.CONST>
0

>  <SCORE.SYSTEM.DIHEDRAL>
0

>  <SCORE.SYSTEM.SOLV>
0

>  <SCORE.SYSTEM.norm>
0

>  <SCORE.heavy>
12

>  <SCORE.norm>
-1.25606

>  <RMSD>
3.070

$$$$
ligand
 OpenBabel02271912143D
libRbt.so/2013.1/901 2013/11/27
 12 13  0  0  0  0  0  0  0  0999 V2000
    4.6509   15.4160    4.0333 C   0  0  0  0  0  0  0  0  0  0  0  0
    5.9604   17.0143    2.9537 C   0  0  0  0  0  0  0  0  0  0  0  0
    3.9761   14.2711    3.9810 N   0  0  0  0  0  0  0  0  0  0  0  0
    6.5642   17.5150    1.8703 N   0  0  0  0  0  0  0  0  0  0  0  0
    5.2547   15.8762    2.9158 N   0  0  0  0  0  0  0  0  0  0  0  0
    4.7448   16.0843    5.2043 N   0  0  0  0  0  0  0  0  0  0  0  0
    6.8688   19.6287    5.4046 N   0  0  0  0  0  0  0  0  0  0  0  0
    6.2329   19.1169    6.5463 C   0  0  0  0  0  0  0  0  0  0  0  0
    5.5009   17.9093    6.4664 N   0  0  0  0  0  0  0  0  0  0  0  0
    5.4386   17.2466    5.2913 C   0  0  0  0  0  0  0  0  0  0  0  0
    6.0762   17.7373    4.1473 C   0  0  0  0  0  0  0  0  0  0  0  0
    6.7974   18.9293    4.1836 C   0  0  0  0  0  0  0  0  0  0  0  0
  1  3  1  0  0  0  0
  1  5  1  0  0  0  0
  1  6  2  0  0  0  0
  2  5  2  0  0  0  0
  2 11  1  0  0  0  0
  2  4  1  0  0  0  0
  6 10  1  0  0  0  0
  7  8  2  0  0  0  0
  7 12  1  0  0  0  0
  8  9  1  0  0  0  0
  9 10  2  0  0  0  0
 10 11  1  0  0  0  0
 11 12  2  0  0  0  0
M  END
>  <CHROM.1>
5.65778589,17.20205950,4.40810167,2.30758610,-0.97381988,-2.00168600

>  <Name>
ligand

>  <RI>
0

>  <Rbt.Current_Directory>
/home/itssahil/PROJECTS/Mol_Feturizer/Test_systems_manuscript/rnas/4lx5

>  <Rbt.Executable>
rbdock ($Id: //depot/dev/client3/rdock/2013.1/src/exe/rbdock.cxx#4 $)

>  <Rbt.Library>
libRbt.so (2013.1, Build901 2013/11/27)

>  <Rbt.Parameter_File>
/export/apps/rDock/src/rDock_2013.1_src/data/scripts/dock_solv.prm

>  <Rbt.Receptor>
prm/pocket_docking_6.prm

>  <SCORE>
-15.0765

>  <SCORE.INTER>
-15.0765

>  <SCORE.INTER.CONST>
1

>  <SCORE.INTER.POLAR>
0

>  <SCORE.INTER.ROT>
0

>  <SCORE.INTER.SOLV>
15.427

>  <SCORE.INTER.VDW>
-18.7933

>  <SCORE.INTER.norm>
-1.25638

>  <SCORE.INTRA>
0

>  <SCORE.INTRA.DIHEDRAL>
0

>  <SCORE.INTRA.DIHEDRAL.0>
0

>  <SCORE.INTRA.POLAR>
0

>  <SCORE.INTRA.POLAR.0>
0

>  <SCORE.INTRA.REPUL>
0

>  <SCORE.INTRA.REPUL.0>
0

>  <SCORE.INTRA.SOLV>
0

>  <SCORE.INTRA.SOLV.lig_0>
-48.1583

>  <SCORE.INTRA.VDW>
0

>  <SCORE.INTRA.VDW.0>
0

>  <SCORE.INTRA.norm>
0

>  <SCORE.RESTR>
0

>  <SCORE.RESTR.CAVITY>
0

>  <SCORE.RESTR.norm>
0

>  <SCORE.SYSTEM>
0

>  <SCORE.SYSTEM.CONST>
0

>  <SCORE.SYSTEM.DIHEDRAL>
0

>  <SCORE.SYSTEM.SOLV>
0

>  <SCORE.SYSTEM.norm>
0

>  <SCORE.heavy>
12

>  <SCORE.norm>
-1.25638

>  <RMSD>
3.070

$$$$
ligand
 OpenBabel02271912143D
libRbt.so/2013.1/901 2013/11/27
 12 13  0  0  0  0  0  0  0  0999 V2000
    4.6510   15.4214    4.0374 C   0  0  0  0  0  0  0  0  0  0  0  0
    5.9571   17.0213    2.9561 C   0  0  0  0  0  0  0  0  0  0  0  0
    3.9749   14.2772    3.9851 N   0  0  0  0  0  0  0  0  0  0  0  0
    6.5564   17.5243    1.8713 N   0  0  0  0  0  0  0  0  0  0  0  0
    5.2502   15.8840    2.9184 N   0  0  0  0  0  0  0  0  0  0  0  0
    4.7508   16.0864    5.2098 N   0  0  0  0  0  0  0  0  0  0  0  0
    6.8791   19.6283    5.4099 N   0  0  0  0  0  0  0  0  0  0  0  0
    6.2479   19.1141    6.5530 C   0  0  0  0  0  0  0  0  0  0  0  0
    5.5144   17.9073    6.4733 N   0  0  0  0  0  0  0  0  0  0  0  0
    5.4461   17.2478    5.2967 C   0  0  0  0  0  0  0  0  0  0  0  0
    6.0790   17.7410    4.1512 C   0  0  0  0  0  0  0  0  0  0  0  0
    6.8015   18.9322    4.1874 C   0  0  0  0  0  0  0  0  0  0  0  0
  1  3  1  0  0  0  0
  1  5  1  0  0  0  0
  1  6  2  0  0  0  0
  2  5  2  0  0  0  0
  2 11  1  0  0  0  0
  2  4  1  0  0  0  0
  6 10  1  0  0  0  0
  7  8  2  0  0  0  0
  7 12  1  0  0  0  0
  8  9  1  0  0  0  0
  9 10  2  0  0  0  0
 10 11  1  0  0  0  0
 11 12  2  0  0  0  0
M  END
>  <CHROM.1>
5.66127081,17.20545594,4.41240269,2.31562048,-0.97484428,-1.99237118

>  <Name>
ligand

>  <RI>
0

>  <Rbt.Current_Directory>
/home/itssahil/PROJECTS/Mol_Feturizer/Test_systems_manuscript/rnas/4lx5

>  <Rbt.Executable>
rbdock ($Id: //depot/dev/client3/rdock/2013.1/src/exe/rbdock.cxx#4 $)

>  <Rbt.Library>
libRbt.so (2013.1, Build901 2013/11/27)

>  <Rbt.Parameter_File>
/export/apps/rDock/src/rDock_2013.1_src/data/scripts/dock_solv.prm

>  <Rbt.Receptor>
prm/pocket_docking_7.prm

>  <SCORE>
-15.0725

>  <SCORE.INTER>
-15.0725

>  <SCORE.INTER.CONST>
1

>  <SCORE.INTER.POLAR>
0

>  <SCORE.INTER.ROT>
0

>  <SCORE.INTER.SOLV>
15.4113

>  <SCORE.INTER.VDW>
-18.7854

>  <SCORE.INTER.norm>
-1.25604

>  <SCORE.INTRA>
0

>  <SCORE.INTRA.DIHEDRAL>
0

>  <SCORE.INTRA.DIHEDRAL.0>
0

>  <SCORE.INTRA.POLAR>
0

>  <SCORE.INTRA.POLAR.0>
0

>  <SCORE.INTRA.REPUL>
0

>  <SCORE.INTRA.REPUL.0>
0

>  <SCORE.INTRA.SOLV>
0

>  <SCORE.INTRA.SOLV.lig_0>
-48.1583

>  <SCORE.INTRA.VDW>
0

>  <SCORE.INTRA.VDW.0>
0

>  <SCORE.INTRA.norm>
0

>  <SCORE.RESTR>
0

>  <SCORE.RESTR.CAVITY>
0

>  <SCORE.RESTR.norm>
0

>  <SCORE.SYSTEM>
0

>  <SCORE.SYSTEM.CONST>
0

>  <SCORE.SYSTEM.DIHEDRAL>
0

>  <SCORE.SYSTEM.SOLV>
0

>  <SCORE.SYSTEM.norm>
0

>  <SCORE.heavy>
12

>  <SCORE.norm>
-1.25604

>  <RMSD>
3.070

$$$$
ligand
 OpenBabel02271912143D
libRbt.so/2013.1/901 2013/11/27
 12 13  0  0  0  0  0  0  0  0999 V2000
    4.6512   15.4177    4.0338 C   0  0  0  0  0  0  0  0  0  0  0  0
    5.9611   17.0163    2.9551 C   0  0  0  0  0  0  0  0  0  0  0  0
    3.9763   14.2730    3.9809 N   0  0  0  0  0  0  0  0  0  0  0  0
    6.5652   17.5174    1.8720 N   0  0  0  0  0  0  0  0  0  0  0  0
    5.2553   15.8784    2.9166 N   0  0  0  0  0  0  0  0  0  0  0  0
    4.7450   16.0854    5.2052 N   0  0  0  0  0  0  0  0  0  0  0  0
    6.8697   19.6294    5.4074 N   0  0  0  0  0  0  0  0  0  0  0  0
    6.2335   19.1172    6.5487 C   0  0  0  0  0  0  0  0  0  0  0  0
    5.5013   17.9098    6.4682 N   0  0  0  0  0  0  0  0  0  0  0  0
    5.4391   17.2476    5.2928 C   0  0  0  0  0  0  0  0  0  0  0  0
    6.0770   17.7387    4.1491 C   0  0  0  0  0  0  0  0  0  0  0  0
    6.7983   18.9306    4.1861 C   0  0  0  0  0  0  0  0  0  0  0  0
  1  3  1  0  0  0  0
  1  5  1  0  0  0  0
  1  6  2  0  0  0  0
  2  5  2  0  0  0  0
  2 11  1  0  0  0  0
  2  4  1  0  0  0  0
  6 10  1  0  0  0  0
  7  8  2  0  0  0  0
  7 12  1  0  0  0  0
  8  9  1  0  0  0  0
  9 10  2  0  0  0  0
 10 11  1  0  0  0  0
 11 12  2  0  0  0  0
M  END
>  <CHROM.1>
5.65837603,17.20343386,4.40957069,2.30746271,-0.97359775,-2.00133290

>  <Name>
ligand

>  <RI>
0

>  <Rbt.Current_Directory>
/home/itssahil/PROJECTS/Mol_Feturizer/Test_systems_manuscript/rnas/4lx5

>  <Rbt.Executable>
rbdock ($Id: //depot/dev/client3/rdock/2013.1/src/exe/rbdock.cxx#4 $)

>  <Rbt.Library>
libRbt.so (2013.1, Build901 2013/11/27)

>  <Rbt.Parameter_File>
/export/apps/rDock/src/rDock_2013.1_src/data/scripts/dock_solv.prm

>  <Rbt.Receptor>
prm/pocket_docking_7.prm

>  <SCORE>
-15.0755

>  <SCORE.INTER>
-15.0755

>  <SCORE.INTER.CONST>
1

>  <SCORE.INTER.POLAR>
0

>  <SCORE.INTER.ROT>
0

>  <SCORE.INTER.SOLV>
15.4269

>  <SCORE.INTER.VDW>
-18.7926

>  <SCORE.INTER.norm>
-1.25629

>  <SCORE.INTRA>
0

>  <SCORE.INTRA.DIHEDRAL>
0

>  <SCORE.INTRA.DIHEDRAL.0>
0

>  <SCORE.INTRA.POLAR>
0

>  <SCORE.INTRA.POLAR.0>
0

>  <SCORE.INTRA.REPUL>
0

>  <SCORE.INTRA.REPUL.0>
0

>  <SCORE.INTRA.SOLV>
0

>  <SCORE.INTRA.SOLV.lig_0>
-48.1583

>  <SCORE.INTRA.VDW>
0

>  <SCORE.INTRA.VDW.0>
0

>  <SCORE.INTRA.norm>
0

>  <SCORE.RESTR>
0

>  <SCORE.RESTR.CAVITY>
0

>  <SCORE.RESTR.norm>
0

>  <SCORE.SYSTEM>
0

>  <SCORE.SYSTEM.CONST>
0

>  <SCORE.SYSTEM.DIHEDRAL>
0

>  <SCORE.SYSTEM.SOLV>
0

>  <SCORE.SYSTEM.norm>
0

>  <SCORE.heavy>
12

>  <SCORE.norm>
-1.25629

>  <RMSD>
3.070

$$$$
ligand
 OpenBabel02271912143D
libRbt.so/2013.1/901 2013/11/27
 12 13  0  0  0  0  0  0  0  0999 V2000
    4.6494   15.4010    4.0397 C   0  0  0  0  0  0  0  0  0  0  0  0
    5.9851   16.9728    2.9532 C   0  0  0  0  0  0  0  0  0  0  0  0
    3.9642   14.2620    3.9952 N   0  0  0  0  0  0  0  0  0  0  0  0
    6.6046   17.4537    1.8698 N   0  0  0  0  0  0  0  0  0  0  0  0
    5.2689   15.8410    2.9227 N   0  0  0  0  0  0  0  0  0  0  0  0
    4.7378   16.0834    5.2030 N   0  0  0  0  0  0  0  0  0  0  0  0
    6.8937   19.6099    5.3797 N   0  0  0  0  0  0  0  0  0  0  0  0
    6.2414   19.1189    6.5212 C   0  0  0  0  0  0  0  0  0  0  0  0
    5.4986   17.9174    6.4493 N   0  0  0  0  0  0  0  0  0  0  0  0
    5.4419   17.2401    5.2822 C   0  0  0  0  0  0  0  0  0  0  0  0
    6.0958   17.7100    4.1386 C   0  0  0  0  0  0  0  0  0  0  0  0
    6.8279   18.8955    4.1671 C   0  0  0  0  0  0  0  0  0  0  0  0
  1  3  1  0  0  0  0
  1  5  1  0  0  0  0
  1  6  2  0  0  0  0
  2  5  2  0  0  0  0
  2 11  1  0  0  0  0
  2  4  1  0  0  0  0
  6 10  1  0  0  0  0
  7  8  2  0  0  0  0
  7 12  1  0  0  0  0
  8  9  1  0  0  0  0
  9 10  2  0  0  0  0
 10 11  1  0  0  0  0
 11 12  2  0  0  0  0
M  END
>  <CHROM.1>
5.66957201,17.18214094,4.40193936,2.29848781,-0.96082567,-2.02204254

>  <Name>
ligand

>  <RI>
0

>  <Rbt.Current_Directory>
/home/itssahil/PROJECTS/Mol_Feturizer/Test_systems_manuscript/rnas/4lx5

>  <Rbt.Executable>
rbdock ($Id: //depot/dev/client3/rdock/2013.1/src/exe/rbdock.cxx#4 $)

>  <Rbt.Library>
libRbt.so (2013.1, Build901 2013/11/27)

>  <Rbt.Parameter_File>
/export/apps/rDock/src/rDock_2013.1_src/data/scripts/dock_solv.prm

>  <Rbt.Receptor>
prm/pocket_docking_3.prm

>  <SCORE>
-15.0731

>  <SCORE.INTER>
-15.0731

>  <SCORE.INTER.CONST>
1

>  <SCORE.INTER.POLAR>
0

>  <SCORE.INTER.ROT>
0

>  <SCORE.INTER.SOLV>
15.4595

>  <SCORE.INTER.VDW>
-18.8019

>  <SCORE.INTER.norm>
-1.25609

>  <SCORE.INTRA>
0

>  <SCORE.INTRA.DIHEDRAL>
0

>  <SCORE.INTRA.DIHEDRAL.0>
0

>  <SCORE.INTRA.POLAR>
0

>  <SCORE.INTRA.POLAR.0>
0

>  <SCORE.INTRA.REPUL>
0

>  <SCORE.INTRA.REPUL.0>
0

>  <SCORE.INTRA.SOLV>
0

>  <SCORE.INTRA.SOLV.lig_0>
-48.1583

>  <SCORE.INTRA.VDW>
0

>  <SCORE.INTRA.VDW.0>
0

>  <SCORE.INTRA.norm>
0

>  <SCORE.RESTR>
0

>  <SCORE.RESTR.CAVITY>
0

>  <SCORE.RESTR.norm>
0

>  <SCORE.SYSTEM>
0

>  <SCORE.SYSTEM.CONST>
0

>  <SCORE.SYSTEM.DIHEDRAL>
0

>  <SCORE.SYSTEM.SOLV>
0

>  <SCORE.SYSTEM.norm>
0

>  <SCORE.heavy>
12

>  <SCORE.norm>
-1.25609

>  <RMSD>
3.071

$$$$
ligand
 OpenBabel02271912143D
libRbt.so/2013.1/901 2013/11/27
 12 13  0  0  0  0  0  0  0  0999 V2000
    4.6568   15.4189    4.0382 C   0  0  0  0  0  0  0  0  0  0  0  0
    5.9768   17.0126    2.9645 C   0  0  0  0  0  0  0  0  0  0  0  0
    3.9786   14.2762    3.9830 N   0  0  0  0  0  0  0  0  0  0  0  0
    6.5876   17.5109    1.8840 N   0  0  0  0  0  0  0  0  0  0  0  0
    5.2676   15.8768    2.9236 N   0  0  0  0  0  0  0  0  0  0  0  0
    4.7470   16.0873    5.2095 N   0  0  0  0  0  0  0  0  0  0  0  0
    6.8815   19.6250    5.4190 N   0  0  0  0  0  0  0  0  0  0  0  0
    6.2383   19.1157    6.5576 C   0  0  0  0  0  0  0  0  0  0  0  0
    5.5027   17.9104    6.4746 N   0  0  0  0  0  0  0  0  0  0  0  0
    5.4441   17.2474    5.2994 C   0  0  0  0  0  0  0  0  0  0  0  0
    6.0891   17.7356    4.1585 C   0  0  0  0  0  0  0  0  0  0  0  0
    6.8139   18.9253    4.1979 C   0  0  0  0  0  0  0  0  0  0  0  0
  1  3  1  0  0  0  0
  1  5  1  0  0  0  0
  1  6  2  0  0  0  0
  2  5  2  0  0  0  0
  2 11  1  0  0  0  0
  2  4  1  0  0  0  0
  6 10  1  0  0  0  0
  7  8  2  0  0  0  0
  7 12  1  0  0  0  0
  8  9  1  0  0  0  0
  9 10  2  0  0  0  0
 10 11  1  0  0  0  0
 11 12  2  0  0  0  0
M  END
>  <CHROM.1>
5.66758724,17.20186641,4.41736475,2.30196952,-0.96877910,-2.00671277

>  <Name>
ligand

>  <RI>
0

>  <Rbt.Current_Directory>
/home/itssahil/PROJECTS/Mol_Feturizer/Test_systems_manuscript/rnas/4lx5

>  <Rbt.Executable>
rbdock ($Id: //depot/dev/client3/rdock/2013.1/src/exe/rbdock.cxx#4 $)

>  <Rbt.Library>
libRbt.so (2013.1, Build901 2013/11/27)

>  <Rbt.Parameter_File>
/export/apps/rDock/src/rDock_2013.1_src/data/scripts/dock_solv.prm

>  <Rbt.Receptor>
prm/pocket_docking_5.prm

>  <SCORE>
-15.0639

>  <SCORE.INTER>
-15.0641

>  <SCORE.INTER.CONST>
1

>  <SCORE.INTER.POLAR>
0

>  <SCORE.INTER.ROT>
0

>  <SCORE.INTER.SOLV>
15.4548

>  <SCORE.INTER.VDW>
-18.7943

>  <SCORE.INTER.norm>
-1.25534

>  <SCORE.INTRA>
0

>  <SCORE.INTRA.DIHEDRAL>
0

>  <SCORE.INTRA.DIHEDRAL.0>
0

>  <SCORE.INTRA.POLAR>
0

>  <SCORE.INTRA.POLAR.0>
0

>  <SCORE.INTRA.REPUL>
0

>  <SCORE.INTRA.REPUL.0>
0

>  <SCORE.INTRA.SOLV>
0

>  <SCORE.INTRA.SOLV.lig_0>
-48.1583

>  <SCORE.INTRA.VDW>
0

>  <SCORE.INTRA.VDW.0>
0

>  <SCORE.INTRA.norm>
0

>  <SCORE.RESTR>
0.000160028

>  <SCORE.RESTR.CAVITY>
0.000160028

>  <SCORE.RESTR.norm>
1.33357e-05

>  <SCORE.SYSTEM>
0

>  <SCORE.SYSTEM.CONST>
0

>  <SCORE.SYSTEM.DIHEDRAL>
0

>  <SCORE.SYSTEM.SOLV>
0

>  <SCORE.SYSTEM.norm>
0

>  <SCORE.heavy>
12

>  <SCORE.norm>
-1.25533

>  <RMSD>
3.071

$$$$
ligand
 OpenBabel02271912143D
libRbt.so/2013.1/901 2013/11/27
 12 13  0  0  0  0  0  0  0  0999 V2000
    4.6414   15.4185    4.0371 C   0  0  0  0  0  0  0  0  0  0  0  0
    5.9606   17.0100    2.9592 C   0  0  0  0  0  0  0  0  0  0  0  0
    3.9623   14.2761    3.9844 N   0  0  0  0  0  0  0  0  0  0  0  0
    6.5700   17.5065    1.8770 N   0  0  0  0  0  0  0  0  0  0  0  0
    5.2507   15.8745    2.9208 N   0  0  0  0  0  0  0  0  0  0  0  0
    4.7340   16.0883    5.2073 N   0  0  0  0  0  0  0  0  0  0  0  0
    6.8711   19.6248    5.4089 N   0  0  0  0  0  0  0  0  0  0  0  0
    6.2294   19.1174    6.5492 C   0  0  0  0  0  0  0  0  0  0  0  0
    5.4930   17.9125    6.4689 N   0  0  0  0  0  0  0  0  0  0  0  0
    5.4320   17.2480    5.2947 C   0  0  0  0  0  0  0  0  0  0  0  0
    6.0754   17.7344    4.1521 C   0  0  0  0  0  0  0  0  0  0  0  0
    6.8010   18.9237    4.1888 C   0  0  0  0  0  0  0  0  0  0  0  0
  1  3  1  0  0  0  0
  1  5  1  0  0  0  0
  1  6  2  0  0  0  0
  2  5  2  0  0  0  0
  2 11  1  0  0  0  0
  2  4  1  0  0  0  0
  6 10  1  0  0  0  0
  7  8  2  0  0  0  0
  7 12  1  0  0  0  0
  8  9  1  0  0  0  0
  9 10  2  0  0  0  0
 10 11  1  0  0  0  0
 11 12  2  0  0  0  0
M  END
>  <CHROM.1>
5.65396532,17.20124585,4.41231735,2.30512286,-0.96890558,-2.00535908

>  <Name>
ligand

>  <RI>
0

>  <Rbt.Current_Directory>
/home/itssahil/PROJECTS/Mol_Feturizer/Test_systems_manuscript/rnas/4lx5

>  <Rbt.Executable>
rbdock ($Id: //depot/dev/client3/rdock/2013.1/src/exe/rbdock.cxx#4 $)

>  <Rbt.Library>
libRbt.so (2013.1, Build901 2013/11/27)

>  <Rbt.Parameter_File>
/export/apps/rDock/src/rDock_2013.1_src/data/scripts/dock_solv.prm

>  <Rbt.Receptor>
prm/blind_docking_60.prm

>  <SCORE>
-15.0665

>  <SCORE.INTER>
-15.0665

>  <SCORE.INTER.CONST>
1

>  <SCORE.INTER.POLAR>
0

>  <SCORE.INTER.ROT>
0

>  <SCORE.INTER.SOLV>
15.3629

>  <SCORE.INTER.VDW>
-18.7653

>  <SCORE.INTER.norm>
-1.25554

>  <SCORE.INTRA>
0

>  <SCORE.INTRA.DIHEDRAL>
0

>  <SCORE.INTRA.DIHEDRAL.0>
0

>  <SCORE.INTRA.POLAR>
0

>  <SCORE.INTRA.POLAR.0>
0

>  <SCORE.INTRA.REPUL>
0

>  <SCORE.INTRA.REPUL.0>
0

>  <SCORE.INTRA.SOLV>
0

>  <SCORE.INTRA.SOLV.lig_0>
-48.1583

>  <SCORE.INTRA.VDW>
0

>  <SCORE.INTRA.VDW.0>
0

>  <SCORE.INTRA.norm>
0

>  <SCORE.RESTR>
0

>  <SCORE.RESTR.CAVITY>
0

>  <SCORE.RESTR.norm>
0

>  <SCORE.SYSTEM>
0

>  <SCORE.SYSTEM.CONST>
0

>  <SCORE.SYSTEM.DIHEDRAL>
0

>  <SCORE.SYSTEM.SOLV>
0

>  <SCORE.SYSTEM.norm>
0

>  <SCORE.heavy>
12

>  <SCORE.norm>
-1.25554

>  <RMSD>
3.072

$$$$
ligand
 OpenBabel02271912143D
libRbt.so/2013.1/901 2013/11/27
 12 13  0  0  0  0  0  0  0  0999 V2000
    4.6522   15.3584    4.0371 C   0  0  0  0  0  0  0  0  0  0  0  0
    5.9200   16.9791    2.9412 C   0  0  0  0  0  0  0  0  0  0  0  0
    3.9939   14.2037    3.9923 N   0  0  0  0  0  0  0  0  0  0  0  0
    6.4987   17.4917    1.8497 N   0  0  0  0  0  0  0  0  0  0  0  0
    5.2309   15.8307    2.9113 N   0  0  0  0  0  0  0  0  0  0  0  0
    4.7549   16.0249    5.2084 N   0  0  0  0  0  0  0  0  0  0  0  0
    6.8286   19.6003    5.3848 N   0  0  0  0  0  0  0  0  0  0  0  0
    6.2189   19.0760    6.5350 C   0  0  0  0  0  0  0  0  0  0  0  0
    5.5039   17.8577    6.4634 N   0  0  0  0  0  0  0  0  0  0  0  0
    5.4326   17.1972    5.2875 C   0  0  0  0  0  0  0  0  0  0  0  0
    6.0443   17.7006    4.1349 C   0  0  0  0  0  0  0  0  0  0  0  0
    6.7480   18.9032    4.1631 C   0  0  0  0  0  0  0  0  0  0  0  0
  1  3  1  0  0  0  0
  1  5  1  0  0  0  0
  1  6  2  0  0  0  0
  2  5  2  0  0  0  0
  2 11  1  0  0  0  0
  2  4  1  0  0  0  0
  6 10  1  0  0  0  0
  7  8  2  0  0  0  0
  7 12  1  0  0  0  0
  8  9  1  0  0  0  0
  9 10  2  0  0  0  0
 10 11  1  0  0  0  0
 11 12  2  0  0  0  0
M  END
>  <CHROM.1>
5.63814052,17.15840166,4.40080974,2.32296742,-0.99411110,-1.98608453

>  <Name>
ligand

>  <RI>
0

>  <Rbt.Current_Directory>
/home/itssahil/PROJECTS/Mol_Feturizer/Test_systems_manuscript/rnas/4lx5

>  <Rbt.Executable>
rbdock ($Id: //depot/dev/client3/rdock/2013.1/src/exe/rbdock.cxx#4 $)

>  <Rbt.Library>
libRbt.so (2013.1, Build901 2013/11/27)

>  <Rbt.Parameter_File>
/export/apps/rDock/src/rDock_2013.1_src/data/scripts/dock_solv.prm

>  <Rbt.Receptor>
prm/pocket_docking_3.prm

>  <SCORE>
-14.9944

>  <SCORE.INTER>
-14.9944

>  <SCORE.INTER.CONST>
1

>  <SCORE.INTER.POLAR>
0

>  <SCORE.INTER.ROT>
0

>  <SCORE.INTER.SOLV>
15.4653

>  <SCORE.INTER.VDW>
-18.7513

>  <SCORE.INTER.norm>
-1.24953

>  <SCORE.INTRA>
0

>  <SCORE.INTRA.DIHEDRAL>
0

>  <SCORE.INTRA.DIHEDRAL.0>
0

>  <SCORE.INTRA.POLAR>
0

>  <SCORE.INTRA.POLAR.0>
0

>  <SCORE.INTRA.REPUL>
0

>  <SCORE.INTRA.REPUL.0>
0

>  <SCORE.INTRA.SOLV>
0

>  <SCORE.INTRA.SOLV.lig_0>
-48.1583

>  <SCORE.INTRA.VDW>
0

>  <SCORE.INTRA.VDW.0>
0

>  <SCORE.INTRA.norm>
0

>  <SCORE.RESTR>
0

>  <SCORE.RESTR.CAVITY>
0

>  <SCORE.RESTR.norm>
0

>  <SCORE.SYSTEM>
0

>  <SCORE.SYSTEM.CONST>
0

>  <SCORE.SYSTEM.DIHEDRAL>
0

>  <SCORE.SYSTEM.SOLV>
0

>  <SCORE.SYSTEM.norm>
0

>  <SCORE.heavy>
12

>  <SCORE.norm>
-1.24953

>  <RMSD>
3.072

$$$$
ligand
 OpenBabel02271912143D
libRbt.so/2013.1/901 2013/11/27
 12 13  0  0  0  0  0  0  0  0999 V2000
    4.6398   15.4019    4.0378 C   0  0  0  0  0  0  0  0  0  0  0  0
    5.9726   16.9738    2.9481 C   0  0  0  0  0  0  0  0  0  0  0  0
    3.9548   14.2627    3.9950 N   0  0  0  0  0  0  0  0  0  0  0  0
    6.5896   17.4547    1.8632 N   0  0  0  0  0  0  0  0  0  0  0  0
    5.2567   15.8419    2.9193 N   0  0  0  0  0  0  0  0  0  0  0  0
    4.7307   16.0844    5.2008 N   0  0  0  0  0  0  0  0  0  0  0  0
    6.8862   19.6113    5.3722 N   0  0  0  0  0  0  0  0  0  0  0  0
    6.2367   19.1204    6.5152 C   0  0  0  0  0  0  0  0  0  0  0  0
    5.4940   17.9186    6.4452 N   0  0  0  0  0  0  0  0  0  0  0  0
    5.4347   17.2412    5.2783 C   0  0  0  0  0  0  0  0  0  0  0  0
    6.0859   17.7111    4.1332 C   0  0  0  0  0  0  0  0  0  0  0  0
    6.8179   18.8968    4.1598 C   0  0  0  0  0  0  0  0  0  0  0  0
  1  3  1  0  0  0  0
  1  5  1  0  0  0  0
  1  6  2  0  0  0  0
  2  5  2  0  0  0  0
  2 11  1  0  0  0  0
  2  4  1  0  0  0  0
  6 10  1  0  0  0  0
  7  8  2  0  0  0  0
  7 12  1  0  0  0  0
  8  9  1  0  0  0  0
  9 10  2  0  0  0  0
 10 11  1  0  0  0  0
 11 12  2  0  0  0  0
M  END
>  <CHROM.1>
5.66042094,17.18323316,4.39751183,2.30193887,-0.96201616,-2.01931320

>  <Name>
ligand

>  <RI>
0

>  <Rbt.Current_Directory>
/home/itssahil/PROJECTS/Mol_Feturizer/Test_systems_manuscript/rnas/4lx5

>  <Rbt.Executable>
rbdock ($Id: //depot/dev/client3/rdock/2013.1/src/exe/rbdock.cxx#4 $)

>  <Rbt.Library>
libRbt.so (2013.1, Build901 2013/11/27)

>  <Rbt.Parameter_File>
/export/apps/rDock/src/rDock_2013.1_src/data/scripts/dock_solv.prm

>  <Rbt.Receptor>
prm/pocket_docking_5.prm

>  <SCORE>
-15.0791

>  <SCORE.INTER>
-15.0791

>  <SCORE.INTER.CONST>
1

>  <SCORE.INTER.POLAR>
0

>  <SCORE.INTER.ROT>
0

>  <SCORE.INTER.SOLV>
15.3929

>  <SCORE.INTER.VDW>
-18.7837

>  <SCORE.INTER.norm>
-1.25659

>  <SCORE.INTRA>
0

>  <SCORE.INTRA.DIHEDRAL>
0

>  <SCORE.INTRA.DIHEDRAL.0>
0

>  <SCORE.INTRA.POLAR>
0

>  <SCORE.INTRA.POLAR.0>
0

>  <SCORE.INTRA.REPUL>
0

>  <SCORE.INTRA.REPUL.0>
0

>  <SCORE.INTRA.SOLV>
0

>  <SCORE.INTRA.SOLV.lig_0>
-48.1583

>  <SCORE.INTRA.VDW>
0

>  <SCORE.INTRA.VDW.0>
0

>  <SCORE.INTRA.norm>
0

>  <SCORE.RESTR>
0

>  <SCORE.RESTR.CAVITY>
0

>  <SCORE.RESTR.norm>
0

>  <SCORE.SYSTEM>
0

>  <SCORE.SYSTEM.CONST>
0

>  <SCORE.SYSTEM.DIHEDRAL>
0

>  <SCORE.SYSTEM.SOLV>
0

>  <SCORE.SYSTEM.norm>
0

>  <SCORE.heavy>
12

>  <SCORE.norm>
-1.25659

>  <RMSD>
3.072

$$$$
ligand
 OpenBabel02271912143D
libRbt.so/2013.1/901 2013/11/27
 12 13  0  0  0  0  0  0  0  0999 V2000
    4.3935   15.2249    3.8722 C   0  0  0  0  0  0  0  0  0  0  0  0
    5.6299   16.8367    2.7284 C   0  0  0  0  0  0  0  0  0  0  0  0
    3.6893   14.0969    3.8445 N   0  0  0  0  0  0  0  0  0  0  0  0
    6.1373   17.3665    1.6100 N   0  0  0  0  0  0  0  0  0  0  0  0
    4.8966   15.7156    2.7184 N   0  0  0  0  0  0  0  0  0  0  0  0
    4.6171   15.8451    5.0520 N   0  0  0  0  0  0  0  0  0  0  0  0
    6.8356   19.3348    5.1724 N   0  0  0  0  0  0  0  0  0  0  0  0
    6.3017   18.7922    6.3514 C   0  0  0  0  0  0  0  0  0  0  0  0
    5.5364   17.6039    6.2997 N   0  0  0  0  0  0  0  0  0  0  0  0
    5.3440   16.9887    5.1129 C   0  0  0  0  0  0  0  0  0  0  0  0
    5.8789   17.5102    3.9306 C   0  0  0  0  0  0  0  0  0  0  0  0
    6.6288   18.6849    3.9395 C   0  0  0  0  0  0  0  0  0  0  0  0
  1  3  1  0  0  0  0
  1  5  1  0  0  0  0
  1  6  2  0  0  0  0
  2  5  2  0  0  0  0
  2 11  1  0  0  0  0
  2  4  1  0  0  0  0
  6 10  1  0  0  0  0
  7  8  2  0  0  0  0
  7 12  1  0  0  0  0
  8  9  1  0  0  0  0
  9 10  2  0  0  0  0
 10 11  1  0  0  0  0
 11 12  2  0  0  0  0
M  END
>  <CHROM.1>
5.47500712,16.97398321,4.21141523,2.48685281,-0.98516564,-1.81491263

>  <Name>
ligand

>  <RI>
0

>  <Rbt.Current_Directory>
/home/itssahil/PROJECTS/Mol_Feturizer/Test_systems_manuscript/rnas/4lx5

>  <Rbt.Executable>
rbdock ($Id: //depot/dev/client3/rdock/2013.1/src/exe/rbdock.cxx#4 $)

>  <Rbt.Library>
libRbt.so (2013.1, Build901 2013/11/27)

>  <Rbt.Parameter_File>
/export/apps/rDock/src/rDock_2013.1_src/data/scripts/dock_solv.prm

>  <Rbt.Receptor>
prm/pocket_docking_6.prm

>  <SCORE>
-14.391

>  <SCORE.INTER>
-14.391

>  <SCORE.INTER.CONST>
1

>  <SCORE.INTER.POLAR>
0

>  <SCORE.INTER.ROT>
0

>  <SCORE.INTER.SOLV>
13.8616

>  <SCORE.INTER.VDW>
-17.8145

>  <SCORE.INTER.norm>
-1.19925

>  <SCORE.INTRA>
0

>  <SCORE.INTRA.DIHEDRAL>
0

>  <SCORE.INTRA.DIHEDRAL.0>
0

>  <SCORE.INTRA.POLAR>
0

>  <SCORE.INTRA.POLAR.0>
0

>  <SCORE.INTRA.REPUL>
0

>  <SCORE.INTRA.REPUL.0>
0

>  <SCORE.INTRA.SOLV>
0

>  <SCORE.INTRA.SOLV.lig_0>
-48.1583

>  <SCORE.INTRA.VDW>
0

>  <SCORE.INTRA.VDW.0>
0

>  <SCORE.INTRA.norm>
0

>  <SCORE.RESTR>
0

>  <SCORE.RESTR.CAVITY>
0

>  <SCORE.RESTR.norm>
0

>  <SCORE.SYSTEM>
0

>  <SCORE.SYSTEM.CONST>
0

>  <SCORE.SYSTEM.DIHEDRAL>
0

>  <SCORE.SYSTEM.SOLV>
0

>  <SCORE.SYSTEM.norm>
0

>  <SCORE.heavy>
12

>  <SCORE.norm>
-1.19925

>  <RMSD>
3.072

$$$$
ligand
 OpenBabel02271912143D
libRbt.so/2013.1/901 2013/11/27
 12 13  0  0  0  0  0  0  0  0999 V2000
    4.6397   15.4168    4.0367 C   0  0  0  0  0  0  0  0  0  0  0  0
    5.9563   17.0096    2.9576 C   0  0  0  0  0  0  0  0  0  0  0  0
    3.9619   14.2736    3.9846 N   0  0  0  0  0  0  0  0  0  0  0  0
    6.5642   17.5067    1.8748 N   0  0  0  0  0  0  0  0  0  0  0  0
    5.2476   15.8734    2.9199 N   0  0  0  0  0  0  0  0  0  0  0  0
    4.7325   16.0868    5.2068 N   0  0  0  0  0  0  0  0  0  0  0  0
    6.8658   19.6257    5.4063 N   0  0  0  0  0  0  0  0  0  0  0  0
    6.2257   19.1177    6.5472 C   0  0  0  0  0  0  0  0  0  0  0  0
    5.4905   17.9119    6.4676 N   0  0  0  0  0  0  0  0  0  0  0  0
    5.4293   17.2473    5.2935 C   0  0  0  0  0  0  0  0  0  0  0  0
    6.0712   17.7343    4.1502 C   0  0  0  0  0  0  0  0  0  0  0  0
    6.7955   18.9244    4.1863 C   0  0  0  0  0  0  0  0  0  0  0  0
  1  3  1  0  0  0  0
  1  5  1  0  0  0  0
  1  6  2  0  0  0  0
  2  5  2  0  0  0  0
  2 11  1  0  0  0  0
  2  4  1  0  0  0  0
  6 10  1  0  0  0  0
  7  8  2  0  0  0  0
  7 12  1  0  0  0  0
  8  9  1  0  0  0  0
  9 10  2  0  0  0  0
 10 11  1  0  0  0  0
 11 12  2  0  0  0  0
M  END
>  <CHROM.1>
5.65061444,17.20066856,4.41089359,2.30559856,-0.97026116,-2.00505822

>  <Name>
ligand

>  <RI>
0

>  <Rbt.Current_Directory>
/home/itssahil/PROJECTS/Mol_Feturizer/Test_systems_manuscript/rnas/4lx5

>  <Rbt.Executable>
rbdock ($Id: //depot/dev/client3/rdock/2013.1/src/exe/rbdock.cxx#4 $)

>  <Rbt.Library>
libRbt.so (2013.1, Build901 2013/11/27)

>  <Rbt.Parameter_File>
/export/apps/rDock/src/rDock_2013.1_src/data/scripts/dock_solv.prm

>  <Rbt.Receptor>
prm/pocket_docking_7.prm

>  <SCORE>
-15.0678

>  <SCORE.INTER>
-15.0678

>  <SCORE.INTER.CONST>
1

>  <SCORE.INTER.POLAR>
0

>  <SCORE.INTER.ROT>
0

>  <SCORE.INTER.SOLV>
15.3572

>  <SCORE.INTER.VDW>
-18.7642

>  <SCORE.INTER.norm>
-1.25565

>  <SCORE.INTRA>
0

>  <SCORE.INTRA.DIHEDRAL>
0

>  <SCORE.INTRA.DIHEDRAL.0>
0

>  <SCORE.INTRA.POLAR>
0

>  <SCORE.INTRA.POLAR.0>
0

>  <SCORE.INTRA.REPUL>
0

>  <SCORE.INTRA.REPUL.0>
0

>  <SCORE.INTRA.SOLV>
0

>  <SCORE.INTRA.SOLV.lig_0>
-48.1583

>  <SCORE.INTRA.VDW>
0

>  <SCORE.INTRA.VDW.0>
0

>  <SCORE.INTRA.norm>
0

>  <SCORE.RESTR>
0

>  <SCORE.RESTR.CAVITY>
0

>  <SCORE.RESTR.norm>
0

>  <SCORE.SYSTEM>
0

>  <SCORE.SYSTEM.CONST>
0

>  <SCORE.SYSTEM.DIHEDRAL>
0

>  <SCORE.SYSTEM.SOLV>
0

>  <SCORE.SYSTEM.norm>
0

>  <SCORE.heavy>
12

>  <SCORE.norm>
-1.25565

>  <RMSD>
3.072

$$$$
ligand
 OpenBabel02271912143D
libRbt.so/2013.1/901 2013/11/27
 12 13  0  0  0  0  0  0  0  0999 V2000
    4.6359   15.4015    4.0378 C   0  0  0  0  0  0  0  0  0  0  0  0
    5.9717   16.9746    2.9534 C   0  0  0  0  0  0  0  0  0  0  0  0
    3.9520   14.2617    3.9922 N   0  0  0  0  0  0  0  0  0  0  0  0
    6.5926   17.4561    1.8710 N   0  0  0  0  0  0  0  0  0  0  0  0
    5.2568   15.8421    2.9218 N   0  0  0  0  0  0  0  0  0  0  0  0
    4.7216   16.0841    5.2012 N   0  0  0  0  0  0  0  0  0  0  0  0
    6.8734   19.6128    5.3812 N   0  0  0  0  0  0  0  0  0  0  0  0
    6.2196   19.1213    6.5216 C   0  0  0  0  0  0  0  0  0  0  0  0
    5.4783   17.9189    6.4486 N   0  0  0  0  0  0  0  0  0  0  0  0
    5.4242   17.2415    5.2815 C   0  0  0  0  0  0  0  0  0  0  0  0
    6.0796   17.7120    4.1390 C   0  0  0  0  0  0  0  0  0  0  0  0
    6.8105   18.8983    4.1686 C   0  0  0  0  0  0  0  0  0  0  0  0
  1  3  1  0  0  0  0
  1  5  1  0  0  0  0
  1  6  2  0  0  0  0
  2  5  2  0  0  0  0
  2 11  1  0  0  0  0
  2  4  1  0  0  0  0
  6 10  1  0  0  0  0
  7  8  2  0  0  0  0
  7 12  1  0  0  0  0
  8  9  1  0  0  0  0
  9 10  2  0  0  0  0
 10 11  1  0  0  0  0
 11 12  2  0  0  0  0
M  END
>  <CHROM.1>
5.65351773,17.18371961,4.40159180,2.29499382,-0.96103897,-2.02498706

>  <Name>
ligand

>  <RI>
0

>  <Rbt.Current_Directory>
/home/itssahil/PROJECTS/Mol_Feturizer/Test_systems_manuscript/rnas/4lx5

>  <Rbt.Executable>
rbdock ($Id: //depot/dev/client3/rdock/2013.1/src/exe/rbdock.cxx#4 $)

>  <Rbt.Library>
libRbt.so (2013.1, Build901 2013/11/27)

>  <Rbt.Parameter_File>
/export/apps/rDock/src/rDock_2013.1_src/data/scripts/dock_solv.prm

>  <Rbt.Receptor>
prm/pocket_docking_7.prm

>  <SCORE>
-15.1114

>  <SCORE.INTER>
-15.1114

>  <SCORE.INTER.CONST>
1

>  <SCORE.INTER.POLAR>
0

>  <SCORE.INTER.ROT>
0

>  <SCORE.INTER.SOLV>
15.3771

>  <SCORE.INTER.VDW>
-18.7999

>  <SCORE.INTER.norm>
-1.25928

>  <SCORE.INTRA>
0

>  <SCORE.INTRA.DIHEDRAL>
0

>  <SCORE.INTRA.DIHEDRAL.0>
0

>  <SCORE.INTRA.POLAR>
0

>  <SCORE.INTRA.POLAR.0>
0

>  <SCORE.INTRA.REPUL>
0

>  <SCORE.INTRA.REPUL.0>
0

>  <SCORE.INTRA.SOLV>
0

>  <SCORE.INTRA.SOLV.lig_0>
-48.1583

>  <SCORE.INTRA.VDW>
0

>  <SCORE.INTRA.VDW.0>
0

>  <SCORE.INTRA.norm>
0

>  <SCORE.RESTR>
0

>  <SCORE.RESTR.CAVITY>
0

>  <SCORE.RESTR.norm>
0

>  <SCORE.SYSTEM>
0

>  <SCORE.SYSTEM.CONST>
0

>  <SCORE.SYSTEM.DIHEDRAL>
0

>  <SCORE.SYSTEM.SOLV>
0

>  <SCORE.SYSTEM.norm>
0

>  <SCORE.heavy>
12

>  <SCORE.norm>
-1.25928

>  <RMSD>
3.073

$$$$
ligand
 OpenBabel02271912143D
libRbt.so/2013.1/901 2013/11/27
 12 13  0  0  0  0  0  0  0  0999 V2000
    4.6337   15.4197    4.0388 C   0  0  0  0  0  0  0  0  0  0  0  0
    5.9468   17.0157    2.9601 C   0  0  0  0  0  0  0  0  0  0  0  0
    3.9569   14.2761    3.9860 N   0  0  0  0  0  0  0  0  0  0  0  0
    6.5523   17.5153    1.8771 N   0  0  0  0  0  0  0  0  0  0  0  0
    5.2391   15.8789    2.9217 N   0  0  0  0  0  0  0  0  0  0  0  0
    4.7281   16.0877    5.2099 N   0  0  0  0  0  0  0  0  0  0  0  0
    6.8584   19.6283    5.4118 N   0  0  0  0  0  0  0  0  0  0  0  0
    6.2209   19.1176    6.5530 C   0  0  0  0  0  0  0  0  0  0  0  0
    5.4867   17.9113    6.4726 N   0  0  0  0  0  0  0  0  0  0  0  0
    5.4240   17.2488    5.2974 C   0  0  0  0  0  0  0  0  0  0  0  0
    6.0633   17.7384    4.1539 C   0  0  0  0  0  0  0  0  0  0  0  0
    6.7866   18.9291    4.1907 C   0  0  0  0  0  0  0  0  0  0  0  0
  1  3  1  0  0  0  0
  1  5  1  0  0  0  0
  1  6  2  0  0  0  0
  2  5  2  0  0  0  0
  2 11  1  0  0  0  0
  2  4  1  0  0  0  0
  6 10  1  0  0  0  0
  7  8  2  0  0  0  0
  7 12  1  0  0  0  0
  8  9  1  0  0  0  0
  9 10  2  0  0  0  0
 10 11  1  0  0  0  0
 11 12  2  0  0  0  0
M  END
>  <CHROM.1>
5.64365146,17.20389327,4.41434823,2.30788357,-0.97188153,-2.00139490

>  <Name>
ligand

>  <RI>
0

>  <Rbt.Current_Directory>
/home/itssahil/PROJECTS/Mol_Feturizer/Test_systems_manuscript/rnas/4lx5

>  <Rbt.Executable>
rbdock ($Id: //depot/dev/client3/rdock/2013.1/src/exe/rbdock.cxx#4 $)

>  <Rbt.Library>
libRbt.so (2013.1, Build901 2013/11/27)

>  <Rbt.Parameter_File>
/export/apps/rDock/src/rDock_2013.1_src/data/scripts/dock_solv.prm

>  <Rbt.Receptor>
prm/pocket_docking_7.prm

>  <SCORE>
-15.0647

>  <SCORE.INTER>
-15.0647

>  <SCORE.INTER.CONST>
1

>  <SCORE.INTER.POLAR>
0

>  <SCORE.INTER.ROT>
0

>  <SCORE.INTER.SOLV>
15.317

>  <SCORE.INTER.VDW>
-18.7488

>  <SCORE.INTER.norm>
-1.25539

>  <SCORE.INTRA>
0

>  <SCORE.INTRA.DIHEDRAL>
0

>  <SCORE.INTRA.DIHEDRAL.0>
0

>  <SCORE.INTRA.POLAR>
0

>  <SCORE.INTRA.POLAR.0>
0

>  <SCORE.INTRA.REPUL>
0

>  <SCORE.INTRA.REPUL.0>
0

>  <SCORE.INTRA.SOLV>
0

>  <SCORE.INTRA.SOLV.lig_0>
-48.1583

>  <SCORE.INTRA.VDW>
0

>  <SCORE.INTRA.VDW.0>
0

>  <SCORE.INTRA.norm>
0

>  <SCORE.RESTR>
0

>  <SCORE.RESTR.CAVITY>
0

>  <SCORE.RESTR.norm>
0

>  <SCORE.SYSTEM>
0

>  <SCORE.SYSTEM.CONST>
0

>  <SCORE.SYSTEM.DIHEDRAL>
0

>  <SCORE.SYSTEM.SOLV>
0

>  <SCORE.SYSTEM.norm>
0

>  <SCORE.heavy>
12

>  <SCORE.norm>
-1.25539

>  <RMSD>
3.074

$$$$
ligand
 OpenBabel02271912143D
libRbt.so/2013.1/901 2013/11/27
 12 13  0  0  0  0  0  0  0  0999 V2000
    4.6680   15.4368    4.0464 C   0  0  0  0  0  0  0  0  0  0  0  0
    6.0098   17.0273    2.9953 C   0  0  0  0  0  0  0  0  0  0  0  0
    3.9850   14.2976    3.9785 N   0  0  0  0  0  0  0  0  0  0  0  0
    6.6374   17.5259    1.9245 N   0  0  0  0  0  0  0  0  0  0  0  0
    5.2958   15.8951    2.9413 N   0  0  0  0  0  0  0  0  0  0  0  0
    4.7458   16.1012    5.2208 N   0  0  0  0  0  0  0  0  0  0  0  0
    6.8944   19.6277    5.4697 N   0  0  0  0  0  0  0  0  0  0  0  0
    6.2336   19.1181    6.5981 C   0  0  0  0  0  0  0  0  0  0  0  0
    5.4934   17.9167    6.5015 N   0  0  0  0  0  0  0  0  0  0  0  0
    5.4473   17.2576    5.3236 C   0  0  0  0  0  0  0  0  0  0  0  0
    6.1097   17.7461    4.1929 C   0  0  0  0  0  0  0  0  0  0  0  0
    6.8397   18.9322    4.2457 C   0  0  0  0  0  0  0  0  0  0  0  0
  1  3  1  0  0  0  0
  1  5  1  0  0  0  0
  1  6  2  0  0  0  0
  2  5  2  0  0  0  0
  2 11  1  0  0  0  0
  2  4  1  0  0  0  0
  6 10  1  0  0  0  0
  7  8  2  0  0  0  0
  7 12  1  0  0  0  0
  8  9  1  0  0  0  0
  9 10  2  0  0  0  0
 10 11  1  0  0  0  0
 11 12  2  0  0  0  0
M  END
>  <CHROM.1>
5.68223583,17.21364278,4.44445835,2.28453240,-0.95871926,-2.01793614

>  <Name>
ligand

>  <RI>
0

>  <Rbt.Current_Directory>
/home/itssahil/PROJECTS/Mol_Feturizer/Test_systems_manuscript/rnas/4lx5

>  <Rbt.Executable>
rbdock ($Id: //depot/dev/client3/rdock/2013.1/src/exe/rbdock.cxx#4 $)

>  <Rbt.Library>
libRbt.so (2013.1, Build901 2013/11/27)

>  <Rbt.Parameter_File>
/export/apps/rDock/src/rDock_2013.1_src/data/scripts/dock_solv.prm

>  <Rbt.Receptor>
prm/pocket_docking_8.prm

>  <SCORE>
-14.9959

>  <SCORE.INTER>
-14.9959

>  <SCORE.INTER.CONST>
1

>  <SCORE.INTER.POLAR>
0

>  <SCORE.INTER.ROT>
0

>  <SCORE.INTER.SOLV>
15.5011

>  <SCORE.INTER.VDW>
-18.7643

>  <SCORE.INTER.norm>
-1.24966

>  <SCORE.INTRA>
0

>  <SCORE.INTRA.DIHEDRAL>
0

>  <SCORE.INTRA.DIHEDRAL.0>
0

>  <SCORE.INTRA.POLAR>
0

>  <SCORE.INTRA.POLAR.0>
0

>  <SCORE.INTRA.REPUL>
0

>  <SCORE.INTRA.REPUL.0>
0

>  <SCORE.INTRA.SOLV>
0

>  <SCORE.INTRA.SOLV.lig_0>
-48.1583

>  <SCORE.INTRA.VDW>
0

>  <SCORE.INTRA.VDW.0>
0

>  <SCORE.INTRA.norm>
0

>  <SCORE.RESTR>
0

>  <SCORE.RESTR.CAVITY>
0

>  <SCORE.RESTR.norm>
0

>  <SCORE.SYSTEM>
0

>  <SCORE.SYSTEM.CONST>
0

>  <SCORE.SYSTEM.DIHEDRAL>
0

>  <SCORE.SYSTEM.SOLV>
0

>  <SCORE.SYSTEM.norm>
0

>  <SCORE.heavy>
12

>  <SCORE.norm>
-1.24966

>  <RMSD>
3.074

$$$$
ligand
 OpenBabel02271912143D
libRbt.so/2013.1/901 2013/11/27
 12 13  0  0  0  0  0  0  0  0999 V2000
    4.6432   15.3849    4.0444 C   0  0  0  0  0  0  0  0  0  0  0  0
    5.9711   16.9659    2.9618 C   0  0  0  0  0  0  0  0  0  0  0  0
    3.9619   14.2436    3.9964 N   0  0  0  0  0  0  0  0  0  0  0  0
    6.5868   17.4535    1.8791 N   0  0  0  0  0  0  0  0  0  0  0  0
    5.2589   15.8317    2.9279 N   0  0  0  0  0  0  0  0  0  0  0  0
    4.7314   16.0628    5.2103 N   0  0  0  0  0  0  0  0  0  0  0  0
    6.8750   19.5962    5.3974 N   0  0  0  0  0  0  0  0  0  0  0  0
    6.2267   19.0982    6.5381 C   0  0  0  0  0  0  0  0  0  0  0  0
    5.4881   17.8942    6.4626 N   0  0  0  0  0  0  0  0  0  0  0  0
    5.4315   17.2216    5.2929 C   0  0  0  0  0  0  0  0  0  0  0  0
    6.0815   17.6985    4.1500 C   0  0  0  0  0  0  0  0  0  0  0  0
    6.8095   18.8865    4.1819 C   0  0  0  0  0  0  0  0  0  0  0  0
  1  3  1  0  0  0  0
  1  5  1  0  0  0  0
  1  6  2  0  0  0  0
  2  5  2  0  0  0  0
  2 11  1  0  0  0  0
  2  4  1  0  0  0  0
  6 10  1  0  0  0  0
  7  8  2  0  0  0  0
  7 12  1  0  0  0  0
  8  9  1  0  0  0  0
  9 10  2  0  0  0  0
 10 11  1  0  0  0  0
 11 12  2  0  0  0  0
M  END
>  <CHROM.1>
5.65766170,17.16811855,4.41194965,2.29884632,-0.96488600,-2.01760567

>  <Name>
ligand

>  <RI>
0

>  <Rbt.Current_Directory>
/home/itssahil/PROJECTS/Mol_Feturizer/Test_systems_manuscript/rnas/4lx5

>  <Rbt.Executable>
rbdock ($Id: //depot/dev/client3/rdock/2013.1/src/exe/rbdock.cxx#4 $)

>  <Rbt.Library>
libRbt.so (2013.1, Build901 2013/11/27)

>  <Rbt.Parameter_File>
/export/apps/rDock/src/rDock_2013.1_src/data/scripts/dock_solv.prm

>  <Rbt.Receptor>
prm/blind_docking_60.prm

>  <SCORE>
-15.0494

>  <SCORE.INTER>
-15.0494

>  <SCORE.INTER.CONST>
1

>  <SCORE.INTER.POLAR>
0

>  <SCORE.INTER.ROT>
0

>  <SCORE.INTER.SOLV>
15.4105

>  <SCORE.INTER.VDW>
-18.7698

>  <SCORE.INTER.norm>
-1.25412

>  <SCORE.INTRA>
0

>  <SCORE.INTRA.DIHEDRAL>
0

>  <SCORE.INTRA.DIHEDRAL.0>
0

>  <SCORE.INTRA.POLAR>
0

>  <SCORE.INTRA.POLAR.0>
0

>  <SCORE.INTRA.REPUL>
0

>  <SCORE.INTRA.REPUL.0>
0

>  <SCORE.INTRA.SOLV>
0

>  <SCORE.INTRA.SOLV.lig_0>
-48.1583

>  <SCORE.INTRA.VDW>
0

>  <SCORE.INTRA.VDW.0>
0

>  <SCORE.INTRA.norm>
0

>  <SCORE.RESTR>
0

>  <SCORE.RESTR.CAVITY>
0

>  <SCORE.RESTR.norm>
0

>  <SCORE.SYSTEM>
0

>  <SCORE.SYSTEM.CONST>
0

>  <SCORE.SYSTEM.DIHEDRAL>
0

>  <SCORE.SYSTEM.SOLV>
0

>  <SCORE.SYSTEM.norm>
0

>  <SCORE.heavy>
12

>  <SCORE.norm>
-1.25412

>  <RMSD>
3.075

$$$$
ligand
 OpenBabel02271912143D
libRbt.so/2013.1/901 2013/11/27
 12 13  0  0  0  0  0  0  0  0999 V2000
    4.6466   15.4038    4.0439 C   0  0  0  0  0  0  0  0  0  0  0  0
    5.9876   16.9794    2.9696 C   0  0  0  0  0  0  0  0  0  0  0  0
    3.9637   14.2637    3.9926 N   0  0  0  0  0  0  0  0  0  0  0  0
    6.6144   17.4629    1.8915 N   0  0  0  0  0  0  0  0  0  0  0  0
    5.2737   15.8465    2.9321 N   0  0  0  0  0  0  0  0  0  0  0  0
    4.7252   16.0846    5.2088 N   0  0  0  0  0  0  0  0  0  0  0  0
    6.8736   19.6145    5.4066 N   0  0  0  0  0  0  0  0  0  0  0  0
    6.2137   19.1207    6.5425 C   0  0  0  0  0  0  0  0  0  0  0  0
    5.4735   17.9180    6.4633 N   0  0  0  0  0  0  0  0  0  0  0  0
    5.4266   17.2424    5.2949 C   0  0  0  0  0  0  0  0  0  0  0  0
    6.0883   17.7150    4.1569 C   0  0  0  0  0  0  0  0  0  0  0  0
    6.8182   18.9017    4.1925 C   0  0  0  0  0  0  0  0  0  0  0  0
  1  3  1  0  0  0  0
  1  5  1  0  0  0  0
  1  6  2  0  0  0  0
  2  5  2  0  0  0  0
  2 11  1  0  0  0  0
  2  4  1  0  0  0  0
  6 10  1  0  0  0  0
  7  8  2  0  0  0  0
  7 12  1  0  0  0  0
  8  9  1  0  0  0  0
  9 10  2  0  0  0  0
 10 11  1  0  0  0  0
 11 12  2  0  0  0  0
M  END
>  <CHROM.1>
5.66100376,17.18609467,4.41624176,2.28552563,-0.95907216,-2.03120389

>  <Name>
ligand

>  <RI>
0

>  <Rbt.Current_Directory>
/home/itssahil/PROJECTS/Mol_Feturizer/Test_systems_manuscript/rnas/4lx5

>  <Rbt.Executable>
rbdock ($Id: //depot/dev/client3/rdock/2013.1/src/exe/rbdock.cxx#4 $)

>  <Rbt.Library>
libRbt.so (2013.1, Build901 2013/11/27)

>  <Rbt.Parameter_File>
/export/apps/rDock/src/rDock_2013.1_src/data/scripts/dock_solv.prm

>  <Rbt.Receptor>
prm/pocket_docking_4.prm

>  <SCORE>
-15.0626

>  <SCORE.INTER>
-15.0626

>  <SCORE.INTER.CONST>
1

>  <SCORE.INTER.POLAR>
0

>  <SCORE.INTER.ROT>
0

>  <SCORE.INTER.SOLV>
15.4489

>  <SCORE.INTER.VDW>
-18.7913

>  <SCORE.INTER.norm>
-1.25521

>  <SCORE.INTRA>
0

>  <SCORE.INTRA.DIHEDRAL>
0

>  <SCORE.INTRA.DIHEDRAL.0>
0

>  <SCORE.INTRA.POLAR>
0

>  <SCORE.INTRA.POLAR.0>
0

>  <SCORE.INTRA.REPUL>
0

>  <SCORE.INTRA.REPUL.0>
0

>  <SCORE.INTRA.SOLV>
0

>  <SCORE.INTRA.SOLV.lig_0>
-48.1583

>  <SCORE.INTRA.VDW>
0

>  <SCORE.INTRA.VDW.0>
0

>  <SCORE.INTRA.norm>
0

>  <SCORE.RESTR>
0

>  <SCORE.RESTR.CAVITY>
0

>  <SCORE.RESTR.norm>
0

>  <SCORE.SYSTEM>
0

>  <SCORE.SYSTEM.CONST>
0

>  <SCORE.SYSTEM.DIHEDRAL>
0

>  <SCORE.SYSTEM.SOLV>
0

>  <SCORE.SYSTEM.norm>
0

>  <SCORE.heavy>
12

>  <SCORE.norm>
-1.25521

>  <RMSD>
3.075

$$$$
ligand
 OpenBabel02271912143D
libRbt.so/2013.1/901 2013/11/27
 12 13  0  0  0  0  0  0  0  0999 V2000
    4.6410   15.3916    4.0490 C   0  0  0  0  0  0  0  0  0  0  0  0
    5.9728   16.9667    2.9627 C   0  0  0  0  0  0  0  0  0  0  0  0
    3.9521   14.2548    4.0021 N   0  0  0  0  0  0  0  0  0  0  0  0
    6.5853   17.4531    1.8777 N   0  0  0  0  0  0  0  0  0  0  0  0
    5.2531   15.8373    2.9301 N   0  0  0  0  0  0  0  0  0  0  0  0
    4.7404   16.0659    5.2161 N   0  0  0  0  0  0  0  0  0  0  0  0
    6.9078   19.5849    5.3996 N   0  0  0  0  0  0  0  0  0  0  0  0
    6.2629   19.0881    6.5428 C   0  0  0  0  0  0  0  0  0  0  0  0
    5.5161   17.8892    6.4686 N   0  0  0  0  0  0  0  0  0  0  0  0
    5.4484   17.2200    5.2975 C   0  0  0  0  0  0  0  0  0  0  0  0
    6.0948   17.6956    4.1521 C   0  0  0  0  0  0  0  0  0  0  0  0
    6.8306   18.8788    4.1828 C   0  0  0  0  0  0  0  0  0  0  0  0
  1  3  1  0  0  0  0
  1  5  1  0  0  0  0
  1  6  2  0  0  0  0
  2  5  2  0  0  0  0
  2 11  1  0  0  0  0
  2  4  1  0  0  0  0
  6 10  1  0  0  0  0
  7  8  2  0  0  0  0
  7 12  1  0  0  0  0
  8  9  1  0  0  0  0
  9 10  2  0  0  0  0
 10 11  1  0  0  0  0
 11 12  2  0  0  0  0
M  END
>  <CHROM.1>
5.66909650,17.16726557,4.41515860,2.31289076,-0.96152427,-2.00353606

>  <Name>
ligand

>  <RI>
0

>  <Rbt.Current_Directory>
/home/itssahil/PROJECTS/Mol_Feturizer/Test_systems_manuscript/rnas/4lx5

>  <Rbt.Executable>
rbdock ($Id: //depot/dev/client3/rdock/2013.1/src/exe/rbdock.cxx#4 $)

>  <Rbt.Library>
libRbt.so (2013.1, Build901 2013/11/27)

>  <Rbt.Parameter_File>
/export/apps/rDock/src/rDock_2013.1_src/data/scripts/dock_solv.prm

>  <Rbt.Receptor>
prm/pocket_docking_7.prm

>  <SCORE>
-15.0378

>  <SCORE.INTER>
-15.0378

>  <SCORE.INTER.CONST>
1

>  <SCORE.INTER.POLAR>
0

>  <SCORE.INTER.ROT>
0

>  <SCORE.INTER.SOLV>
15.3544

>  <SCORE.INTER.VDW>
-18.7433

>  <SCORE.INTER.norm>
-1.25315

>  <SCORE.INTRA>
0

>  <SCORE.INTRA.DIHEDRAL>
0

>  <SCORE.INTRA.DIHEDRAL.0>
0

>  <SCORE.INTRA.POLAR>
0

>  <SCORE.INTRA.POLAR.0>
0

>  <SCORE.INTRA.REPUL>
0

>  <SCORE.INTRA.REPUL.0>
0

>  <SCORE.INTRA.SOLV>
0

>  <SCORE.INTRA.SOLV.lig_0>
-48.1583

>  <SCORE.INTRA.VDW>
0

>  <SCORE.INTRA.VDW.0>
0

>  <SCORE.INTRA.norm>
0

>  <SCORE.RESTR>
0

>  <SCORE.RESTR.CAVITY>
0

>  <SCORE.RESTR.norm>
0

>  <SCORE.SYSTEM>
0

>  <SCORE.SYSTEM.CONST>
0

>  <SCORE.SYSTEM.DIHEDRAL>
0

>  <SCORE.SYSTEM.SOLV>
0

>  <SCORE.SYSTEM.norm>
0

>  <SCORE.heavy>
12

>  <SCORE.norm>
-1.25315

>  <RMSD>
3.076

$$$$
ligand
 OpenBabel02271912143D
libRbt.so/2013.1/901 2013/11/27
 12 13  0  0  0  0  0  0  0  0999 V2000
    4.6290   15.3770    4.0431 C   0  0  0  0  0  0  0  0  0  0  0  0
    5.9605   16.9570    2.9634 C   0  0  0  0  0  0  0  0  0  0  0  0
    3.9423   14.2392    3.9921 N   0  0  0  0  0  0  0  0  0  0  0  0
    6.5746   17.4470    1.8809 N   0  0  0  0  0  0  0  0  0  0  0  0
    5.2429   15.8264    2.9266 N   0  0  0  0  0  0  0  0  0  0  0  0
    4.7246   16.0488    5.2119 N   0  0  0  0  0  0  0  0  0  0  0  0
    6.8854   19.5712    5.4084 N   0  0  0  0  0  0  0  0  0  0  0  0
    6.2388   19.0707    6.5490 C   0  0  0  0  0  0  0  0  0  0  0  0
    5.4943   17.8707    6.4704 N   0  0  0  0  0  0  0  0  0  0  0  0
    5.4304   17.2040    5.2976 C   0  0  0  0  0  0  0  0  0  0  0  0
    6.0785   17.6834    4.1547 C   0  0  0  0  0  0  0  0  0  0  0  0
    6.8122   18.8678    4.1898 C   0  0  0  0  0  0  0  0  0  0  0  0
  1  3  1  0  0  0  0
  1  5  1  0  0  0  0
  1  6  2  0  0  0  0
  2  5  2  0  0  0  0
  2 11  1  0  0  0  0
  2  4  1  0  0  0  0
  6 10  1  0  0  0  0
  7  8  2  0  0  0  0
  7 12  1  0  0  0  0
  8  9  1  0  0  0  0
  9 10  2  0  0  0  0
 10 11  1  0  0  0  0
 11 12  2  0  0  0  0
M  END
>  <CHROM.1>
5.65318072,17.15370356,4.41562800,2.30801978,-0.96217087,-2.00524012

>  <Name>
ligand

>  <RI>
0

>  <Rbt.Current_Directory>
/home/itssahil/PROJECTS/Mol_Feturizer/Test_systems_manuscript/rnas/4lx5

>  <Rbt.Executable>
rbdock ($Id: //depot/dev/client3/rdock/2013.1/src/exe/rbdock.cxx#4 $)

>  <Rbt.Library>
libRbt.so (2013.1, Build901 2013/11/27)

>  <Rbt.Parameter_File>
/export/apps/rDock/src/rDock_2013.1_src/data/scripts/dock_solv.prm

>  <Rbt.Receptor>
prm/pocket_docking_3.prm

>  <SCORE>
-15.0138

>  <SCORE.INTER>
-15.0138

>  <SCORE.INTER.CONST>
1

>  <SCORE.INTER.POLAR>
0

>  <SCORE.INTER.ROT>
0

>  <SCORE.INTER.SOLV>
15.2885

>  <SCORE.INTER.VDW>
-18.7054

>  <SCORE.INTER.norm>
-1.25115

>  <SCORE.INTRA>
0

>  <SCORE.INTRA.DIHEDRAL>
0

>  <SCORE.INTRA.DIHEDRAL.0>
0

>  <SCORE.INTRA.POLAR>
0

>  <SCORE.INTRA.POLAR.0>
0

>  <SCORE.INTRA.REPUL>
0

>  <SCORE.INTRA.REPUL.0>
0

>  <SCORE.INTRA.SOLV>
0

>  <SCORE.INTRA.SOLV.lig_0>
-48.1583

>  <SCORE.INTRA.VDW>
0

>  <SCORE.INTRA.VDW.0>
0

>  <SCORE.INTRA.norm>
0

>  <SCORE.RESTR>
0

>  <SCORE.RESTR.CAVITY>
0

>  <SCORE.RESTR.norm>
0

>  <SCORE.SYSTEM>
0

>  <SCORE.SYSTEM.CONST>
0

>  <SCORE.SYSTEM.DIHEDRAL>
0

>  <SCORE.SYSTEM.SOLV>
0

>  <SCORE.SYSTEM.norm>
0

>  <SCORE.heavy>
12

>  <SCORE.norm>
-1.25115

>  <RMSD>
3.078

$$$$
ligand
 OpenBabel02271912143D
libRbt.so/2013.1/901 2013/11/27
 12 13  0  0  0  0  0  0  0  0999 V2000
    4.6261   15.4041    4.0519 C   0  0  0  0  0  0  0  0  0  0  0  0
    5.9673   16.9726    2.9674 C   0  0  0  0  0  0  0  0  0  0  0  0
    3.9387   14.2664    4.0064 N   0  0  0  0  0  0  0  0  0  0  0  0
    6.5901   17.4517    1.8850 N   0  0  0  0  0  0  0  0  0  0  0  0
    5.2489   15.8423    2.9359 N   0  0  0  0  0  0  0  0  0  0  0  0
    4.7134   16.0870    5.2149 N   0  0  0  0  0  0  0  0  0  0  0  0
    6.8759   19.6092    5.3943 N   0  0  0  0  0  0  0  0  0  0  0  0
    6.2201   19.1202    6.5347 C   0  0  0  0  0  0  0  0  0  0  0  0
    5.4751   17.9201    6.4618 N   0  0  0  0  0  0  0  0  0  0  0  0
    5.4195   17.2423    5.2950 C   0  0  0  0  0  0  0  0  0  0  0  0
    6.0769   17.7102    4.1526 C   0  0  0  0  0  0  0  0  0  0  0  0
    6.8113   18.8943    4.1820 C   0  0  0  0  0  0  0  0  0  0  0  0
  1  3  1  0  0  0  0
  1  5  1  0  0  0  0
  1  6  2  0  0  0  0
  2  5  2  0  0  0  0
  2 11  1  0  0  0  0
  2  4  1  0  0  0  0
  6 10  1  0  0  0  0
  7  8  2  0  0  0  0
  7 12  1  0  0  0  0
  8  9  1  0  0  0  0
  9 10  2  0  0  0  0
 10 11  1  0  0  0  0
 11 12  2  0  0  0  0
M  END
>  <CHROM.1>
5.64904115,17.18338988,4.41528201,2.29661155,-0.95808273,-2.02413003

>  <Name>
ligand

>  <RI>
0

>  <Rbt.Current_Directory>
/home/itssahil/PROJECTS/Mol_Feturizer/Test_systems_manuscript/rnas/4lx5

>  <Rbt.Executable>
rbdock ($Id: //depot/dev/client3/rdock/2013.1/src/exe/rbdock.cxx#4 $)

>  <Rbt.Library>
libRbt.so (2013.1, Build901 2013/11/27)

>  <Rbt.Parameter_File>
/export/apps/rDock/src/rDock_2013.1_src/data/scripts/dock_solv.prm

>  <Rbt.Receptor>
prm/pocket_docking_6.prm

>  <SCORE>
-15.0572

>  <SCORE.INTER>
-15.0572

>  <SCORE.INTER.CONST>
1

>  <SCORE.INTER.POLAR>
0

>  <SCORE.INTER.ROT>
0

>  <SCORE.INTER.SOLV>
15.3015

>  <SCORE.INTER.VDW>
-18.7386

>  <SCORE.INTER.norm>
-1.25477

>  <SCORE.INTRA>
0

>  <SCORE.INTRA.DIHEDRAL>
0

>  <SCORE.INTRA.DIHEDRAL.0>
0

>  <SCORE.INTRA.POLAR>
0

>  <SCORE.INTRA.POLAR.0>
0

>  <SCORE.INTRA.REPUL>
0

>  <SCORE.INTRA.REPUL.0>
0

>  <SCORE.INTRA.SOLV>
0

>  <SCORE.INTRA.SOLV.lig_0>
-48.1583

>  <SCORE.INTRA.VDW>
0

>  <SCORE.INTRA.VDW.0>
0

>  <SCORE.INTRA.norm>
0

>  <SCORE.RESTR>
0

>  <SCORE.RESTR.CAVITY>
0

>  <SCORE.RESTR.norm>
0

>  <SCORE.SYSTEM>
0

>  <SCORE.SYSTEM.CONST>
0

>  <SCORE.SYSTEM.DIHEDRAL>
0

>  <SCORE.SYSTEM.SOLV>
0

>  <SCORE.SYSTEM.norm>
0

>  <SCORE.heavy>
12

>  <SCORE.norm>
-1.25477

>  <RMSD>
3.079

$$$$
ligand
 OpenBabel02271912143D
libRbt.so/2013.1/901 2013/11/27
 12 13  0  0  0  0  0  0  0  0999 V2000
    4.6146   15.3832    4.1131 C   0  0  0  0  0  0  0  0  0  0  0  0
    5.8516   16.9801    2.9492 C   0  0  0  0  0  0  0  0  0  0  0  0
    3.9446   14.2343    4.1076 N   0  0  0  0  0  0  0  0  0  0  0  0
    6.3903   17.4756    1.8297 N   0  0  0  0  0  0  0  0  0  0  0  0
    5.1516   15.8380    2.9598 N   0  0  0  0  0  0  0  0  0  0  0  0
    4.7706   16.0611    5.2719 N   0  0  0  0  0  0  0  0  0  0  0  0
    6.8818   19.6184    5.3252 N   0  0  0  0  0  0  0  0  0  0  0  0
    6.3145   19.1121    6.5048 C   0  0  0  0  0  0  0  0  0  0  0  0
    5.5862   17.9000    6.4755 N   0  0  0  0  0  0  0  0  0  0  0  0
    5.4615   17.2277    5.3108 C   0  0  0  0  0  0  0  0  0  0  0  0
    6.0305   17.7130    4.1289 C   0  0  0  0  0  0  0  0  0  0  0  0
    6.7456   18.9091    4.1155 C   0  0  0  0  0  0  0  0  0  0  0  0
  1  3  1  0  0  0  0
  1  5  1  0  0  0  0
  1  6  2  0  0  0  0
  2  5  2  0  0  0  0
  2 11  1  0  0  0  0
  2  4  1  0  0  0  0
  6 10  1  0  0  0  0
  7  8  2  0  0  0  0
  7 12  1  0  0  0  0
  8  9  1  0  0  0  0
  9 10  2  0  0  0  0
 10 11  1  0  0  0  0
 11 12  2  0  0  0  0
M  END
>  <CHROM.1>
5.63062694,17.17754663,4.41696656,2.39837597,-1.00090204,-1.93354213

>  <Name>
ligand

>  <RI>
0

>  <Rbt.Current_Directory>
/home/itssahil/PROJECTS/Mol_Feturizer/Test_systems_manuscript/rnas/4lx5

>  <Rbt.Executable>
rbdock ($Id: //depot/dev/client3/rdock/2013.1/src/exe/rbdock.cxx#4 $)

>  <Rbt.Library>
libRbt.so (2013.1, Build901 2013/11/27)

>  <Rbt.Parameter_File>
/export/apps/rDock/src/rDock_2013.1_src/data/scripts/dock_solv.prm

>  <Rbt.Receptor>
prm/pocket_docking_5.prm

>  <SCORE>
-14.7547

>  <SCORE.INTER>
-14.7549

>  <SCORE.INTER.CONST>
1

>  <SCORE.INTER.POLAR>
0

>  <SCORE.INTER.ROT>
0

>  <SCORE.INTER.SOLV>
15.205

>  <SCORE.INTER.VDW>
-18.505

>  <SCORE.INTER.norm>
-1.22958

>  <SCORE.INTRA>
0

>  <SCORE.INTRA.DIHEDRAL>
0

>  <SCORE.INTRA.DIHEDRAL.0>
0

>  <SCORE.INTRA.POLAR>
0

>  <SCORE.INTRA.POLAR.0>
0

>  <SCORE.INTRA.REPUL>
0

>  <SCORE.INTRA.REPUL.0>
0

>  <SCORE.INTRA.SOLV>
0

>  <SCORE.INTRA.SOLV.lig_0>
-48.1583

>  <SCORE.INTRA.VDW>
0

>  <SCORE.INTRA.VDW.0>
0

>  <SCORE.INTRA.norm>
0

>  <SCORE.RESTR>
0.000225305

>  <SCORE.RESTR.CAVITY>
0.000225305

>  <SCORE.RESTR.norm>
1.87754e-05

>  <SCORE.SYSTEM>
0

>  <SCORE.SYSTEM.CONST>
0

>  <SCORE.SYSTEM.DIHEDRAL>
0

>  <SCORE.SYSTEM.SOLV>
0

>  <SCORE.SYSTEM.norm>
0

>  <SCORE.heavy>
12

>  <SCORE.norm>
-1.22956

>  <RMSD>
3.092

$$$$
ligand
 OpenBabel02271912143D
libRbt.so/2013.1/901 2013/11/27
 12 13  0  0  0  0  0  0  0  0999 V2000
    4.6026   15.4058    4.1902 C   0  0  0  0  0  0  0  0  0  0  0  0
    5.7738   17.0267    2.9920 C   0  0  0  0  0  0  0  0  0  0  0  0
    3.9431   14.2509    4.2007 N   0  0  0  0  0  0  0  0  0  0  0  0
    6.2590   17.5394    1.8558 N   0  0  0  0  0  0  0  0  0  0  0  0
    5.0849   15.8781    3.0199 N   0  0  0  0  0  0  0  0  0  0  0  0
    4.8028   16.0724    5.3488 N   0  0  0  0  0  0  0  0  0  0  0  0
    6.8831   19.6483    5.3509 N   0  0  0  0  0  0  0  0  0  0  0  0
    6.3720   19.1239    6.5481 C   0  0  0  0  0  0  0  0  0  0  0  0
    5.6537   17.9054    6.5366 N   0  0  0  0  0  0  0  0  0  0  0  0
    5.4844   17.2449    5.3709 C   0  0  0  0  0  0  0  0  0  0  0  0
    5.9974   17.7482    4.1711 C   0  0  0  0  0  0  0  0  0  0  0  0
    6.7007   18.9510    4.1402 C   0  0  0  0  0  0  0  0  0  0  0  0
  1  3  1  0  0  0  0
  1  5  1  0  0  0  0
  1  6  2  0  0  0  0
  2  5  2  0  0  0  0
  2 11  1  0  0  0  0
  2  4  1  0  0  0  0
  6 10  1  0  0  0  0
  7  8  2  0  0  0  0
  7 12  1  0  0  0  0
  8  9  1  0  0  0  0
  9 10  2  0  0  0  0
 10 11  1  0  0  0  0
 11 12  2  0  0  0  0
M  END
>  <CHROM.1>
5.61507047,17.20602166,4.47007675,2.47044177,-1.02334972,-1.86127223

>  <Name>
ligand

>  <RI>
0

>  <Rbt.Current_Directory>
/home/itssahil/PROJECTS/Mol_Feturizer/Test_systems_manuscript/rnas/4lx5

>  <Rbt.Executable>
rbdock ($Id: //depot/dev/client3/rdock/2013.1/src/exe/rbdock.cxx#4 $)

>  <Rbt.Library>
libRbt.so (2013.1, Build901 2013/11/27)

>  <Rbt.Parameter_File>
/export/apps/rDock/src/rDock_2013.1_src/data/scripts/dock_solv.prm

>  <Rbt.Receptor>
prm/blind_docking_40.prm

>  <SCORE>
-14.4985

>  <SCORE.INTER>
-14.4985

>  <SCORE.INTER.CONST>
1

>  <SCORE.INTER.POLAR>
0

>  <SCORE.INTER.ROT>
0

>  <SCORE.INTER.SOLV>
15.1407

>  <SCORE.INTER.VDW>
-18.3126

>  <SCORE.INTER.norm>
-1.20821

>  <SCORE.INTRA>
0

>  <SCORE.INTRA.DIHEDRAL>
0

>  <SCORE.INTRA.DIHEDRAL.0>
0

>  <SCORE.INTRA.POLAR>
0

>  <SCORE.INTRA.POLAR.0>
0

>  <SCORE.INTRA.REPUL>
0

>  <SCORE.INTRA.REPUL.0>
0

>  <SCORE.INTRA.SOLV>
0

>  <SCORE.INTRA.SOLV.lig_0>
-48.1583

>  <SCORE.INTRA.VDW>
0

>  <SCORE.INTRA.VDW.0>
0

>  <SCORE.INTRA.norm>
0

>  <SCORE.RESTR>
0

>  <SCORE.RESTR.CAVITY>
0

>  <SCORE.RESTR.norm>
0

>  <SCORE.SYSTEM>
0

>  <SCORE.SYSTEM.CONST>
0

>  <SCORE.SYSTEM.DIHEDRAL>
0

>  <SCORE.SYSTEM.SOLV>
0

>  <SCORE.SYSTEM.norm>
0

>  <SCORE.heavy>
12

>  <SCORE.norm>
-1.20821

>  <RMSD>
3.115

$$$$
ligand
 OpenBabel02271912143D
libRbt.so/2013.1/901 2013/11/27
 12 13  0  0  0  0  0  0  0  0999 V2000
    3.9822   14.5169    3.5858 C   0  0  0  0  0  0  0  0  0  0  0  0
    5.0701   16.2885    2.5309 C   0  0  0  0  0  0  0  0  0  0  0  0
    3.3481   13.3515    3.4934 N   0  0  0  0  0  0  0  0  0  0  0  0
    5.4985   16.9347    1.4409 N   0  0  0  0  0  0  0  0  0  0  0  0
    4.4073   15.1267    2.4576 N   0  0  0  0  0  0  0  0  0  0  0  0
    4.2146   15.0574    4.8026 N   0  0  0  0  0  0  0  0  0  0  0  0
    6.2176   18.6631    5.1217 N   0  0  0  0  0  0  0  0  0  0  0  0
    5.7660   17.9979    6.2720 C   0  0  0  0  0  0  0  0  0  0  0  0
    5.0737   16.7702    6.1529 N   0  0  0  0  0  0  0  0  0  0  0  0
    4.8717   16.2373    4.9285 C   0  0  0  0  0  0  0  0  0  0  0  0
    5.3255   16.8819    3.7733 C   0  0  0  0  0  0  0  0  0  0  0  0
    6.0015   18.0983    3.8491 C   0  0  0  0  0  0  0  0  0  0  0  0
  1  3  1  0  0  0  0
  1  5  1  0  0  0  0
  1  6  2  0  0  0  0
  2  5  2  0  0  0  0
  2 11  1  0  0  0  0
  2  4  1  0  0  0  0
  6 10  1  0  0  0  0
  7  8  2  0  0  0  0
  7 12  1  0  0  0  0
  8  9  1  0  0  0  0
  9 10  2  0  0  0  0
 10 11  1  0  0  0  0
 11 12  2  0  0  0  0
M  END
>  <CHROM.1>
4.96697682,16.30070736,4.02464136,2.53598286,-1.05410123,-1.69448465

>  <Name>
ligand

>  <RI>
0

>  <Rbt.Current_Directory>
/home/itssahil/PROJECTS/Mol_Feturizer/Test_systems_manuscript/rnas/4lx5

>  <Rbt.Executable>
rbdock ($Id: //depot/dev/client3/rdock/2013.1/src/exe/rbdock.cxx#4 $)

>  <Rbt.Library>
libRbt.so (2013.1, Build901 2013/11/27)

>  <Rbt.Parameter_File>
/export/apps/rDock/src/rDock_2013.1_src/data/scripts/dock_solv.prm

>  <Rbt.Receptor>
prm/blind_docking_20.prm

>  <SCORE>
-10.4946

>  <SCORE.INTER>
-11.1793

>  <SCORE.INTER.CONST>
1

>  <SCORE.INTER.POLAR>
0

>  <SCORE.INTER.ROT>
0

>  <SCORE.INTER.SOLV>
13.834

>  <SCORE.INTER.VDW>
-15.6642

>  <SCORE.INTER.norm>
-0.931607

>  <SCORE.INTRA>
0

>  <SCORE.INTRA.DIHEDRAL>
0

>  <SCORE.INTRA.DIHEDRAL.0>
0

>  <SCORE.INTRA.POLAR>
0

>  <SCORE.INTRA.POLAR.0>
0

>  <SCORE.INTRA.REPUL>
0

>  <SCORE.INTRA.REPUL.0>
0

>  <SCORE.INTRA.SOLV>
0

>  <SCORE.INTRA.SOLV.lig_0>
-48.1583

>  <SCORE.INTRA.VDW>
0

>  <SCORE.INTRA.VDW.0>
0

>  <SCORE.INTRA.norm>
0

>  <SCORE.RESTR>
0.684633

>  <SCORE.RESTR.CAVITY>
0.684633

>  <SCORE.RESTR.norm>
0.0570528

>  <SCORE.SYSTEM>
0

>  <SCORE.SYSTEM.CONST>
0

>  <SCORE.SYSTEM.DIHEDRAL>
0

>  <SCORE.SYSTEM.SOLV>
0

>  <SCORE.SYSTEM.norm>
0

>  <SCORE.heavy>
12

>  <SCORE.norm>
-0.874554

>  <RMSD>
3.283

$$$$
ligand
 OpenBabel02271912143D
libRbt.so/2013.1/901 2013/11/27
 12 13  0  0  0  0  0  0  0  0999 V2000
    3.8586   14.5742    3.5345 C   0  0  0  0  0  0  0  0  0  0  0  0
    4.9774   16.3357    2.4951 C   0  0  0  0  0  0  0  0  0  0  0  0
    3.1947   13.4264    3.4310 N   0  0  0  0  0  0  0  0  0  0  0  0
    5.4085   16.9892    1.4106 N   0  0  0  0  0  0  0  0  0  0  0  0
    4.2850   15.1919    2.4112 N   0  0  0  0  0  0  0  0  0  0  0  0
    4.1192   15.0883    4.7569 N   0  0  0  0  0  0  0  0  0  0  0  0
    6.2150   18.6377    5.1099 N   0  0  0  0  0  0  0  0  0  0  0  0
    5.7610   17.9647    6.2547 C   0  0  0  0  0  0  0  0  0  0  0  0
    5.0369   16.7567    6.1243 N   0  0  0  0  0  0  0  0  0  0  0  0
    4.8069   16.2494    4.8939 C   0  0  0  0  0  0  0  0  0  0  0  0
    5.2626   16.9018    3.7438 C   0  0  0  0  0  0  0  0  0  0  0  0
    5.9695   18.0997    3.8310 C   0  0  0  0  0  0  0  0  0  0  0  0
  1  3  1  0  0  0  0
  1  5  1  0  0  0  0
  1  6  2  0  0  0  0
  2  5  2  0  0  0  0
  2 11  1  0  0  0  0
  2  4  1  0  0  0  0
  6 10  1  0  0  0  0
  7  8  2  0  0  0  0
  7 12  1  0  0  0  0
  8  9  1  0  0  0  0
  9 10  2  0  0  0  0
 10 11  1  0  0  0  0
 11 12  2  0  0  0  0
M  END
>  <CHROM.1>
4.89274798,16.32551015,3.99009696,2.56539084,-1.03070923,-1.65254970

>  <Name>
ligand

>  <RI>
0

>  <Rbt.Current_Directory>
/home/itssahil/PROJECTS/Mol_Feturizer/Test_systems_manuscript/rnas/4lx5

>  <Rbt.Executable>
rbdock ($Id: //depot/dev/client3/rdock/2013.1/src/exe/rbdock.cxx#4 $)

>  <Rbt.Library>
libRbt.so (2013.1, Build901 2013/11/27)

>  <Rbt.Parameter_File>
/export/apps/rDock/src/rDock_2013.1_src/data/scripts/dock_solv.prm

>  <Rbt.Receptor>
prm/blind_docking_20.prm

>  <SCORE>
-10.2325

>  <SCORE.INTER>
-10.8722

>  <SCORE.INTER.CONST>
1

>  <SCORE.INTER.POLAR>
0

>  <SCORE.INTER.ROT>
0

>  <SCORE.INTER.SOLV>
13.6104

>  <SCORE.INTER.VDW>
-15.3849

>  <SCORE.INTER.norm>
-0.906018

>  <SCORE.INTRA>
0

>  <SCORE.INTRA.DIHEDRAL>
0

>  <SCORE.INTRA.DIHEDRAL.0>
0

>  <SCORE.INTRA.POLAR>
0

>  <SCORE.INTRA.POLAR.0>
0

>  <SCORE.INTRA.REPUL>
0

>  <SCORE.INTRA.REPUL.0>
0

>  <SCORE.INTRA.SOLV>
0

>  <SCORE.INTRA.SOLV.lig_0>
-48.1583

>  <SCORE.INTRA.VDW>
0

>  <SCORE.INTRA.VDW.0>
0

>  <SCORE.INTRA.norm>
0

>  <SCORE.RESTR>
0.639737

>  <SCORE.RESTR.CAVITY>
0.639737

>  <SCORE.RESTR.norm>
0.0533114

>  <SCORE.SYSTEM>
0

>  <SCORE.SYSTEM.CONST>
0

>  <SCORE.SYSTEM.DIHEDRAL>
0

>  <SCORE.SYSTEM.SOLV>
0

>  <SCORE.SYSTEM.norm>
0

>  <SCORE.heavy>
12

>  <SCORE.norm>
-0.852706

>  <RMSD>
3.297

$$$$
ligand
 OpenBabel02271912143D
libRbt.so/2013.1/901 2013/11/27
 12 13  0  0  0  0  0  0  0  0999 V2000
    6.4820   18.1662    5.4336 C   0  0  0  0  0  0  0  0  0  0  0  0
    5.0137   16.7456    4.3107 C   0  0  0  0  0  0  0  0  0  0  0  0
    6.9317   18.6641    6.5819 N   0  0  0  0  0  0  0  0  0  0  0  0
    4.0006   15.8728    4.2812 N   0  0  0  0  0  0  0  0  0  0  0  0
    5.4643   17.2780    5.4545 N   0  0  0  0  0  0  0  0  0  0  0  0
    7.0652   18.5339    4.2711 N   0  0  0  0  0  0  0  0  0  0  0  0
    5.7114   16.9724    0.6873 N   0  0  0  0  0  0  0  0  0  0  0  0
    6.7702   17.8934    0.7052 C   0  0  0  0  0  0  0  0  0  0  0  0
    7.2203   18.4294    1.9343 N   0  0  0  0  0  0  0  0  0  0  0  0
    6.6377   18.0314    3.0859 C   0  0  0  0  0  0  0  0  0  0  0  0
    5.5892   17.1057    3.0860 C   0  0  0  0  0  0  0  0  0  0  0  0
    5.1106   16.5639    1.8945 C   0  0  0  0  0  0  0  0  0  0  0  0
  1  3  1  0  0  0  0
  1  5  1  0  0  0  0
  1  6  2  0  0  0  0
  2  5  2  0  0  0  0
  2 11  1  0  0  0  0
  2  4  1  0  0  0  0
  6 10  1  0  0  0  0
  7  8  2  0  0  0  0
  7 12  1  0  0  0  0
  8  9  1  0  0  0  0
  9 10  2  0  0  0  0
 10 11  1  0  0  0  0
 11 12  2  0  0  0  0
M  END
>  <CHROM.1>
6.00480100,17.52934636,3.50719039,-1.54477381,-0.71453596,-1.67895467

>  <Name>
ligand

>  <RI>
0

>  <Rbt.Current_Directory>
/home/itssahil/PROJECTS/Mol_Feturizer/Test_systems_manuscript/rnas/4lx5

>  <Rbt.Executable>
rbdock ($Id: //depot/dev/client3/rdock/2013.1/src/exe/rbdock.cxx#4 $)

>  <Rbt.Library>
libRbt.so (2013.1, Build901 2013/11/27)

>  <Rbt.Parameter_File>
/export/apps/rDock/src/rDock_2013.1_src/data/scripts/dock_solv.prm

>  <Rbt.Receptor>
prm/blind_docking_40.prm

>  <SCORE>
-12.2372

>  <SCORE.INTER>
-12.2372

>  <SCORE.INTER.CONST>
1

>  <SCORE.INTER.POLAR>
0

>  <SCORE.INTER.ROT>
0

>  <SCORE.INTER.SOLV>
17.5277

>  <SCORE.INTER.VDW>
-17.6007

>  <SCORE.INTER.norm>
-1.01976

>  <SCORE.INTRA>
0

>  <SCORE.INTRA.DIHEDRAL>
0

>  <SCORE.INTRA.DIHEDRAL.0>
0

>  <SCORE.INTRA.POLAR>
0

>  <SCORE.INTRA.POLAR.0>
0

>  <SCORE.INTRA.REPUL>
0

>  <SCORE.INTRA.REPUL.0>
0

>  <SCORE.INTRA.SOLV>
0

>  <SCORE.INTRA.SOLV.lig_0>
-48.1583

>  <SCORE.INTRA.VDW>
0

>  <SCORE.INTRA.VDW.0>
0

>  <SCORE.INTRA.norm>
0

>  <SCORE.RESTR>
0

>  <SCORE.RESTR.CAVITY>
0

>  <SCORE.RESTR.norm>
0

>  <SCORE.SYSTEM>
0

>  <SCORE.SYSTEM.CONST>
0

>  <SCORE.SYSTEM.DIHEDRAL>
0

>  <SCORE.SYSTEM.SOLV>
0

>  <SCORE.SYSTEM.norm>
0

>  <SCORE.heavy>
12

>  <SCORE.norm>
-1.01976

>  <RMSD>
3.667

$$$$
ligand
 OpenBabel02271912143D
libRbt.so/2013.1/901 2013/11/27
 12 13  0  0  0  0  0  0  0  0999 V2000
    6.5552   18.2257    5.1456 C   0  0  0  0  0  0  0  0  0  0  0  0
    5.0328   16.8333    4.0601 C   0  0  0  0  0  0  0  0  0  0  0  0
    7.0501   18.7063    6.2827 N   0  0  0  0  0  0  0  0  0  0  0  0
    4.0096   15.9719    4.0570 N   0  0  0  0  0  0  0  0  0  0  0  0
    5.5289   17.3484    5.1929 N   0  0  0  0  0  0  0  0  0  0  0  0
    7.1017   18.5994    3.9674 N   0  0  0  0  0  0  0  0  0  0  0  0
    5.6066   17.0912    0.4171 N   0  0  0  0  0  0  0  0  0  0  0  0
    6.6756   18.0004    0.4076 C   0  0  0  0  0  0  0  0  0  0  0  0
    7.1742   18.5183    1.6257 N   0  0  0  0  0  0  0  0  0  0  0  0
    6.6276   18.1143    2.7927 C   0  0  0  0  0  0  0  0  0  0  0  0
    5.5694   17.2002    2.8198 C   0  0  0  0  0  0  0  0  0  0  0  0
    5.0436   16.6764    1.6402 C   0  0  0  0  0  0  0  0  0  0  0  0
  1  3  1  0  0  0  0
  1  5  1  0  0  0  0
  1  6  2  0  0  0  0
  2  5  2  0  0  0  0
  2 11  1  0  0  0  0
  2  4  1  0  0  0  0
  6 10  1  0  0  0  0
  7  8  2  0  0  0  0
  7 12  1  0  0  0  0
  8  9  1  0  0  0  0
  9 10  2  0  0  0  0
 10 11  1  0  0  0  0
 11 12  2  0  0  0  0
M  END
>  <CHROM.1>
6.00410926,17.61471482,3.23063052,-1.49769520,-0.70655622,-1.63772916

>  <Name>
ligand

>  <RI>
0

>  <Rbt.Current_Directory>
/home/itssahil/PROJECTS/Mol_Feturizer/Test_systems_manuscript/rnas/4lx5

>  <Rbt.Executable>
rbdock ($Id: //depot/dev/client3/rdock/2013.1/src/exe/rbdock.cxx#4 $)

>  <Rbt.Library>
libRbt.so (2013.1, Build901 2013/11/27)

>  <Rbt.Parameter_File>
/export/apps/rDock/src/rDock_2013.1_src/data/scripts/dock_solv.prm

>  <Rbt.Receptor>
prm/pocket_docking_4.prm

>  <SCORE>
-12.2632

>  <SCORE.INTER>
-12.2632

>  <SCORE.INTER.CONST>
1

>  <SCORE.INTER.POLAR>
0

>  <SCORE.INTER.ROT>
0

>  <SCORE.INTER.SOLV>
15.6826

>  <SCORE.INTER.VDW>
-17.003

>  <SCORE.INTER.norm>
-1.02193

>  <SCORE.INTRA>
0

>  <SCORE.INTRA.DIHEDRAL>
0

>  <SCORE.INTRA.DIHEDRAL.0>
0

>  <SCORE.INTRA.POLAR>
0

>  <SCORE.INTRA.POLAR.0>
0

>  <SCORE.INTRA.REPUL>
0

>  <SCORE.INTRA.REPUL.0>
0

>  <SCORE.INTRA.SOLV>
0

>  <SCORE.INTRA.SOLV.lig_0>
-48.1583

>  <SCORE.INTRA.VDW>
0

>  <SCORE.INTRA.VDW.0>
0

>  <SCORE.INTRA.norm>
0

>  <SCORE.RESTR>
0

>  <SCORE.RESTR.CAVITY>
0

>  <SCORE.RESTR.norm>
0

>  <SCORE.SYSTEM>
0

>  <SCORE.SYSTEM.CONST>
0

>  <SCORE.SYSTEM.DIHEDRAL>
0

>  <SCORE.SYSTEM.SOLV>
0

>  <SCORE.SYSTEM.norm>
0

>  <SCORE.heavy>
12

>  <SCORE.norm>
-1.02193

>  <RMSD>
3.668

$$$$
ligand
 OpenBabel02271912143D
libRbt.so/2013.1/901 2013/11/27
 12 13  0  0  0  0  0  0  0  0999 V2000
    6.5904   18.2532    5.3680 C   0  0  0  0  0  0  0  0  0  0  0  0
    5.0436   16.8506    4.3311 C   0  0  0  0  0  0  0  0  0  0  0  0
    7.0898   18.7693    6.4874 N   0  0  0  0  0  0  0  0  0  0  0  0
    4.0018   16.0122    4.3569 N   0  0  0  0  0  0  0  0  0  0  0  0
    5.5449   17.4010    5.4449 N   0  0  0  0  0  0  0  0  0  0  0  0
    7.1513   18.5662    4.1788 N   0  0  0  0  0  0  0  0  0  0  0  0
    5.6422   16.9460    0.6841 N   0  0  0  0  0  0  0  0  0  0  0  0
    6.7309   17.8307    0.6440 C   0  0  0  0  0  0  0  0  0  0  0  0
    7.2343   18.3873    1.8429 N   0  0  0  0  0  0  0  0  0  0  0  0
    6.6728   18.0436    3.0221 C   0  0  0  0  0  0  0  0  0  0  0  0
    5.5947   17.1545    3.0801 C   0  0  0  0  0  0  0  0  0  0  0  0
    5.0638   16.5942    1.9198 C   0  0  0  0  0  0  0  0  0  0  0  0
  1  3  1  0  0  0  0
  1  5  1  0  0  0  0
  1  6  2  0  0  0  0
  2  5  2  0  0  0  0
  2 11  1  0  0  0  0
  2  4  1  0  0  0  0
  6 10  1  0  0  0  0
  7  8  2  0  0  0  0
  7 12  1  0  0  0  0
  8  9  1  0  0  0  0
  9 10  2  0  0  0  0
 10 11  1  0  0  0  0
 11 12  2  0  0  0  0
M  END
>  <CHROM.1>
6.03623809,17.57605119,3.47628636,-1.50260654,-0.68432223,-1.68194114

>  <Name>
ligand

>  <RI>
0

>  <Rbt.Current_Directory>
/home/itssahil/PROJECTS/Mol_Feturizer/Test_systems_manuscript/rnas/4lx5

>  <Rbt.Executable>
rbdock ($Id: //depot/dev/client3/rdock/2013.1/src/exe/rbdock.cxx#4 $)

>  <Rbt.Library>
libRbt.so (2013.1, Build901 2013/11/27)

>  <Rbt.Parameter_File>
/export/apps/rDock/src/rDock_2013.1_src/data/scripts/dock_solv.prm

>  <Rbt.Receptor>
prm/pocket_docking_5.prm

>  <SCORE>
-12.2546

>  <SCORE.INTER>
-12.2546

>  <SCORE.INTER.CONST>
1

>  <SCORE.INTER.POLAR>
0

>  <SCORE.INTER.ROT>
0

>  <SCORE.INTER.SOLV>
17.2741

>  <SCORE.INTER.VDW>
-17.5277

>  <SCORE.INTER.norm>
-1.02121

>  <SCORE.INTRA>
0

>  <SCORE.INTRA.DIHEDRAL>
0

>  <SCORE.INTRA.DIHEDRAL.0>
0

>  <SCORE.INTRA.POLAR>
0

>  <SCORE.INTRA.POLAR.0>
0

>  <SCORE.INTRA.REPUL>
0

>  <SCORE.INTRA.REPUL.0>
0

>  <SCORE.INTRA.SOLV>
0

>  <SCORE.INTRA.SOLV.lig_0>
-48.1583

>  <SCORE.INTRA.VDW>
0

>  <SCORE.INTRA.VDW.0>
0

>  <SCORE.INTRA.norm>
0

>  <SCORE.RESTR>
0

>  <SCORE.RESTR.CAVITY>
0

>  <SCORE.RESTR.norm>
0

>  <SCORE.SYSTEM>
0

>  <SCORE.SYSTEM.CONST>
0

>  <SCORE.SYSTEM.DIHEDRAL>
0

>  <SCORE.SYSTEM.SOLV>
0

>  <SCORE.SYSTEM.norm>
0

>  <SCORE.heavy>
12

>  <SCORE.norm>
-1.02121

>  <RMSD>
3.668

$$$$
ligand
 OpenBabel02271912143D
libRbt.so/2013.1/901 2013/11/27
 12 13  0  0  0  0  0  0  0  0999 V2000
    6.4984   18.1459    5.4597 C   0  0  0  0  0  0  0  0  0  0  0  0
    4.9961   16.7642    4.3331 C   0  0  0  0  0  0  0  0  0  0  0  0
    6.9628   18.6263    6.6096 N   0  0  0  0  0  0  0  0  0  0  0  0
    3.9648   15.9131    4.3018 N   0  0  0  0  0  0  0  0  0  0  0  0
    5.4622   17.2791    5.4787 N   0  0  0  0  0  0  0  0  0  0  0  0
    7.0847   18.5091    4.2974 N   0  0  0  0  0  0  0  0  0  0  0  0
    5.6845   17.0010    0.7086 N   0  0  0  0  0  0  0  0  0  0  0  0
    6.7625   17.8994    0.7285 C   0  0  0  0  0  0  0  0  0  0  0  0
    7.2285   18.4174    1.9595 N   0  0  0  0  0  0  0  0  0  0  0  0
    6.6421   18.0239    3.1106 C   0  0  0  0  0  0  0  0  0  0  0  0
    5.5744   17.1205    3.1086 C   0  0  0  0  0  0  0  0  0  0  0  0
    5.0799   16.5971    1.9154 C   0  0  0  0  0  0  0  0  0  0  0  0
  1  3  1  0  0  0  0
  1  5  1  0  0  0  0
  1  6  2  0  0  0  0
  2  5  2  0  0  0  0
  2 11  1  0  0  0  0
  2  4  1  0  0  0  0
  6 10  1  0  0  0  0
  7  8  2  0  0  0  0
  7 12  1  0  0  0  0
  8  9  1  0  0  0  0
  9 10  2  0  0  0  0
 10 11  1  0  0  0  0
 11 12  2  0  0  0  0
M  END
>  <CHROM.1>
6.00042450,17.53239034,3.53100431,-1.53684177,-0.69399906,-1.66700486

>  <Name>
ligand

>  <RI>
0

>  <Rbt.Current_Directory>
/home/itssahil/PROJECTS/Mol_Feturizer/Test_systems_manuscript/rnas/4lx5

>  <Rbt.Executable>
rbdock ($Id: //depot/dev/client3/rdock/2013.1/src/exe/rbdock.cxx#4 $)

>  <Rbt.Library>
libRbt.so (2013.1, Build901 2013/11/27)

>  <Rbt.Parameter_File>
/export/apps/rDock/src/rDock_2013.1_src/data/scripts/dock_solv.prm

>  <Rbt.Receptor>
prm/pocket_docking_6.prm

>  <SCORE>
-12.2518

>  <SCORE.INTER>
-12.2518

>  <SCORE.INTER.CONST>
1

>  <SCORE.INTER.POLAR>
0

>  <SCORE.INTER.ROT>
0

>  <SCORE.INTER.SOLV>
17.5119

>  <SCORE.INTER.VDW>
-17.6052

>  <SCORE.INTER.norm>
-1.02099

>  <SCORE.INTRA>
0

>  <SCORE.INTRA.DIHEDRAL>
0

>  <SCORE.INTRA.DIHEDRAL.0>
0

>  <SCORE.INTRA.POLAR>
0

>  <SCORE.INTRA.POLAR.0>
0

>  <SCORE.INTRA.REPUL>
0

>  <SCORE.INTRA.REPUL.0>
0

>  <SCORE.INTRA.SOLV>
0

>  <SCORE.INTRA.SOLV.lig_0>
-48.1583

>  <SCORE.INTRA.VDW>
0

>  <SCORE.INTRA.VDW.0>
0

>  <SCORE.INTRA.norm>
0

>  <SCORE.RESTR>
0

>  <SCORE.RESTR.CAVITY>
0

>  <SCORE.RESTR.norm>
0

>  <SCORE.SYSTEM>
0

>  <SCORE.SYSTEM.CONST>
0

>  <SCORE.SYSTEM.DIHEDRAL>
0

>  <SCORE.SYSTEM.SOLV>
0

>  <SCORE.SYSTEM.norm>
0

>  <SCORE.heavy>
12

>  <SCORE.norm>
-1.02099

>  <RMSD>
3.669

$$$$
ligand
 OpenBabel02271912143D
libRbt.so/2013.1/901 2013/11/27
 12 13  0  0  0  0  0  0  0  0999 V2000
    6.4604   18.1345    5.4390 C   0  0  0  0  0  0  0  0  0  0  0  0
    4.9969   16.7255    4.2954 C   0  0  0  0  0  0  0  0  0  0  0  0
    6.8974   18.6293    6.5936 N   0  0  0  0  0  0  0  0  0  0  0  0
    3.9771   15.8611    4.2515 N   0  0  0  0  0  0  0  0  0  0  0  0
    5.4352   17.2547    5.4454 N   0  0  0  0  0  0  0  0  0  0  0  0
    7.0637   18.4965    4.2850 N   0  0  0  0  0  0  0  0  0  0  0  0
    5.7494   16.9442    0.6825 N   0  0  0  0  0  0  0  0  0  0  0  0
    6.8155   17.8564    0.7155 C   0  0  0  0  0  0  0  0  0  0  0  0
    7.2520   18.3894    1.9508 N   0  0  0  0  0  0  0  0  0  0  0  0
    6.6493   17.9969    3.0939 C   0  0  0  0  0  0  0  0  0  0  0  0
    5.5933   17.0801    3.0791 C   0  0  0  0  0  0  0  0  0  0  0  0
    5.1277   16.5416    1.8810 C   0  0  0  0  0  0  0  0  0  0  0  0
  1  3  1  0  0  0  0
  1  5  1  0  0  0  0
  1  6  2  0  0  0  0
  2  5  2  0  0  0  0
  2 11  1  0  0  0  0
  2  4  1  0  0  0  0
  6 10  1  0  0  0  0
  7  8  2  0  0  0  0
  7 12  1  0  0  0  0
  8  9  1  0  0  0  0
  9 10  2  0  0  0  0
 10 11  1  0  0  0  0
 11 12  2  0  0  0  0
M  END
>  <CHROM.1>
6.00617560,17.50044724,3.50615271,-1.56269075,-0.70457953,-1.69116320

>  <Name>
ligand

>  <RI>
0

>  <Rbt.Current_Directory>
/home/itssahil/PROJECTS/Mol_Feturizer/Test_systems_manuscript/rnas/4lx5

>  <Rbt.Executable>
rbdock ($Id: //depot/dev/client3/rdock/2013.1/src/exe/rbdock.cxx#4 $)

>  <Rbt.Library>
libRbt.so (2013.1, Build901 2013/11/27)

>  <Rbt.Parameter_File>
/export/apps/rDock/src/rDock_2013.1_src/data/scripts/dock_solv.prm

>  <Rbt.Receptor>
prm/pocket_docking_7.prm

>  <SCORE>
-12.3496

>  <SCORE.INTER>
-12.3496

>  <SCORE.INTER.CONST>
1

>  <SCORE.INTER.POLAR>
0

>  <SCORE.INTER.ROT>
0

>  <SCORE.INTER.SOLV>
17.4769

>  <SCORE.INTER.VDW>
-17.6587

>  <SCORE.INTER.norm>
-1.02913

>  <SCORE.INTRA>
0

>  <SCORE.INTRA.DIHEDRAL>
0

>  <SCORE.INTRA.DIHEDRAL.0>
0

>  <SCORE.INTRA.POLAR>
0

>  <SCORE.INTRA.POLAR.0>
0

>  <SCORE.INTRA.REPUL>
0

>  <SCORE.INTRA.REPUL.0>
0

>  <SCORE.INTRA.SOLV>
0

>  <SCORE.INTRA.SOLV.lig_0>
-48.1583

>  <SCORE.INTRA.VDW>
0

>  <SCORE.INTRA.VDW.0>
0

>  <SCORE.INTRA.norm>
0

>  <SCORE.RESTR>
0

>  <SCORE.RESTR.CAVITY>
0

>  <SCORE.RESTR.norm>
0

>  <SCORE.SYSTEM>
0

>  <SCORE.SYSTEM.CONST>
0

>  <SCORE.SYSTEM.DIHEDRAL>
0

>  <SCORE.SYSTEM.SOLV>
0

>  <SCORE.SYSTEM.norm>
0

>  <SCORE.heavy>
12

>  <SCORE.norm>
-1.02913

>  <RMSD>
3.669

$$$$
ligand
 OpenBabel02271912143D
libRbt.so/2013.1/901 2013/11/27
 12 13  0  0  0  0  0  0  0  0999 V2000
    6.8798   18.4823    4.9893 C   0  0  0  0  0  0  0  0  0  0  0  0
    6.6630   17.7794    2.7771 C   0  0  0  0  0  0  0  0  0  0  0  0
    7.4224   19.3157    5.8724 N   0  0  0  0  0  0  0  0  0  0  0  0
    6.9760   17.8431    1.4783 N   0  0  0  0  0  0  0  0  0  0  0  0
    7.2175   18.5926    3.6859 N   0  0  0  0  0  0  0  0  0  0  0  0
    5.9827   17.5601    5.4034 N   0  0  0  0  0  0  0  0  0  0  0  0
    4.2511   14.9795    2.6727 N   0  0  0  0  0  0  0  0  0  0  0  0
    3.9206   14.8982    4.0342 C   0  0  0  0  0  0  0  0  0  0  0  0
    4.5247   15.7783    4.9622 N   0  0  0  0  0  0  0  0  0  0  0  0
    5.4019   16.7067    4.5235 C   0  0  0  0  0  0  0  0  0  0  0  0
    5.7332   16.8082    3.1685 C   0  0  0  0  0  0  0  0  0  0  0  0
    5.1676   15.9517    2.2257 C   0  0  0  0  0  0  0  0  0  0  0  0
  1  3  1  0  0  0  0
  1  5  1  0  0  0  0
  1  6  2  0  0  0  0
  2  5  2  0  0  0  0
  2 11  1  0  0  0  0
  2  4  1  0  0  0  0
  6 10  1  0  0  0  0
  7  8  2  0  0  0  0
  7 12  1  0  0  0  0
  8  9  1  0  0  0  0
  9 10  2  0  0  0  0
 10 11  1  0  0  0  0
 11 12  2  0  0  0  0
M  END
>  <CHROM.1>
5.86170058,17.07999391,3.83117282,0.46814819,0.84223183,1.35951217

>  <Name>
ligand

>  <RI>
0

>  <Rbt.Current_Directory>
/home/itssahil/PROJECTS/Mol_Feturizer/Test_systems_manuscript/rnas/4lx5

>  <Rbt.Executable>
rbdock ($Id: //depot/dev/client3/rdock/2013.1/src/exe/rbdock.cxx#4 $)

>  <Rbt.Library>
libRbt.so (2013.1, Build901 2013/11/27)

>  <Rbt.Parameter_File>
/export/apps/rDock/src/rDock_2013.1_src/data/scripts/dock_solv.prm

>  <Rbt.Receptor>
prm/blind_docking_80.prm

>  <SCORE>
-9.31596

>  <SCORE.INTER>
-9.31596

>  <SCORE.INTER.CONST>
1

>  <SCORE.INTER.POLAR>
0

>  <SCORE.INTER.ROT>
0

>  <SCORE.INTER.SOLV>
19.4583

>  <SCORE.INTER.VDW>
-16.2967

>  <SCORE.INTER.norm>
-0.77633

>  <SCORE.INTRA>
0

>  <SCORE.INTRA.DIHEDRAL>
0

>  <SCORE.INTRA.DIHEDRAL.0>
0

>  <SCORE.INTRA.POLAR>
0

>  <SCORE.INTRA.POLAR.0>
0

>  <SCORE.INTRA.REPUL>
0

>  <SCORE.INTRA.REPUL.0>
0

>  <SCORE.INTRA.SOLV>
0

>  <SCORE.INTRA.SOLV.lig_0>
-48.1583

>  <SCORE.INTRA.VDW>
0

>  <SCORE.INTRA.VDW.0>
0

>  <SCORE.INTRA.norm>
0

>  <SCORE.RESTR>
0

>  <SCORE.RESTR.CAVITY>
0

>  <SCORE.RESTR.norm>
0

>  <SCORE.SYSTEM>
0

>  <SCORE.SYSTEM.CONST>
0

>  <SCORE.SYSTEM.DIHEDRAL>
0

>  <SCORE.SYSTEM.SOLV>
0

>  <SCORE.SYSTEM.norm>
0

>  <SCORE.heavy>
12

>  <SCORE.norm>
-0.77633

>  <RMSD>
3.672

$$$$
ligand
 OpenBabel02271912143D
libRbt.so/2013.1/901 2013/11/27
 12 13  0  0  0  0  0  0  0  0999 V2000
    6.5136   18.2233    5.1635 C   0  0  0  0  0  0  0  0  0  0  0  0
    4.9868   16.8538    4.0552 C   0  0  0  0  0  0  0  0  0  0  0  0
    6.9937   18.7024    6.3076 N   0  0  0  0  0  0  0  0  0  0  0  0
    3.9466   16.0132    4.0361 N   0  0  0  0  0  0  0  0  0  0  0  0
    5.4689   17.3673    5.1948 N   0  0  0  0  0  0  0  0  0  0  0  0
    7.0927   18.5771    3.9947 N   0  0  0  0  0  0  0  0  0  0  0  0
    5.6437   17.0729    0.4237 N   0  0  0  0  0  0  0  0  0  0  0  0
    6.7309   17.9603    0.4308 C   0  0  0  0  0  0  0  0  0  0  0  0
    7.2137   18.4771    1.6558 N   0  0  0  0  0  0  0  0  0  0  0  0
    6.6341   18.0929    2.8135 C   0  0  0  0  0  0  0  0  0  0  0  0
    5.5573   17.2006    2.8242 C   0  0  0  0  0  0  0  0  0  0  0  0
    5.0463   16.6787    1.6373 C   0  0  0  0  0  0  0  0  0  0  0  0
  1  3  1  0  0  0  0
  1  5  1  0  0  0  0
  1  6  2  0  0  0  0
  2  5  2  0  0  0  0
  2 11  1  0  0  0  0
  2  4  1  0  0  0  0
  6 10  1  0  0  0  0
  7  8  2  0  0  0  0
  7 12  1  0  0  0  0
  8  9  1  0  0  0  0
  9 10  2  0  0  0  0
 10 11  1  0  0  0  0
 11 12  2  0  0  0  0
M  END
>  <CHROM.1>
5.99138921,17.60930760,3.24140266,-1.52354639,-0.68468119,-1.66154602

>  <Name>
ligand

>  <RI>
0

>  <Rbt.Current_Directory>
/home/itssahil/PROJECTS/Mol_Feturizer/Test_systems_manuscript/rnas/4lx5

>  <Rbt.Executable>
rbdock ($Id: //depot/dev/client3/rdock/2013.1/src/exe/rbdock.cxx#4 $)

>  <Rbt.Library>
libRbt.so (2013.1, Build901 2013/11/27)

>  <Rbt.Parameter_File>
/export/apps/rDock/src/rDock_2013.1_src/data/scripts/dock_solv.prm

>  <Rbt.Receptor>
prm/blind_docking_40.prm

>  <SCORE>
-12.2798

>  <SCORE.INTER>
-12.2798

>  <SCORE.INTER.CONST>
1

>  <SCORE.INTER.POLAR>
0

>  <SCORE.INTER.ROT>
0

>  <SCORE.INTER.SOLV>
15.7785

>  <SCORE.INTER.VDW>
-17.0461

>  <SCORE.INTER.norm>
-1.02332

>  <SCORE.INTRA>
0

>  <SCORE.INTRA.DIHEDRAL>
0

>  <SCORE.INTRA.DIHEDRAL.0>
0

>  <SCORE.INTRA.POLAR>
0

>  <SCORE.INTRA.POLAR.0>
0

>  <SCORE.INTRA.REPUL>
0

>  <SCORE.INTRA.REPUL.0>
0

>  <SCORE.INTRA.SOLV>
0

>  <SCORE.INTRA.SOLV.lig_0>
-48.1583

>  <SCORE.INTRA.VDW>
0

>  <SCORE.INTRA.VDW.0>
0

>  <SCORE.INTRA.norm>
0

>  <SCORE.RESTR>
0

>  <SCORE.RESTR.CAVITY>
0

>  <SCORE.RESTR.norm>
0

>  <SCORE.SYSTEM>
0

>  <SCORE.SYSTEM.CONST>
0

>  <SCORE.SYSTEM.DIHEDRAL>
0

>  <SCORE.SYSTEM.SOLV>
0

>  <SCORE.SYSTEM.norm>
0

>  <SCORE.heavy>
12

>  <SCORE.norm>
-1.02332

>  <RMSD>
3.674

$$$$
ligand
 OpenBabel02271912143D
libRbt.so/2013.1/901 2013/11/27
 12 13  0  0  0  0  0  0  0  0999 V2000
    6.5175   18.2262    5.1630 C   0  0  0  0  0  0  0  0  0  0  0  0
    4.9878   16.8626    4.0514 C   0  0  0  0  0  0  0  0  0  0  0  0
    6.9973   18.7031    6.3081 N   0  0  0  0  0  0  0  0  0  0  0  0
    3.9446   16.0258    4.0301 N   0  0  0  0  0  0  0  0  0  0  0  0
    5.4697   17.3739    5.1921 N   0  0  0  0  0  0  0  0  0  0  0  0
    7.1000   18.5784    3.9954 N   0  0  0  0  0  0  0  0  0  0  0  0
    5.6519   17.0808    0.4212 N   0  0  0  0  0  0  0  0  0  0  0  0
    6.7423   17.9643    0.4306 C   0  0  0  0  0  0  0  0  0  0  0  0
    7.2248   18.4788    1.6566 N   0  0  0  0  0  0  0  0  0  0  0  0
    6.6417   18.0963    2.8132 C   0  0  0  0  0  0  0  0  0  0  0  0
    5.5616   17.2078    2.8216 C   0  0  0  0  0  0  0  0  0  0  0  0
    5.0509   16.6883    1.6336 C   0  0  0  0  0  0  0  0  0  0  0  0
  1  3  1  0  0  0  0
  1  5  1  0  0  0  0
  1  6  2  0  0  0  0
  2  5  2  0  0  0  0
  2 11  1  0  0  0  0
  2  4  1  0  0  0  0
  6 10  1  0  0  0  0
  7  8  2  0  0  0  0
  7 12  1  0  0  0  0
  8  9  1  0  0  0  0
  9 10  2  0  0  0  0
 10 11  1  0  0  0  0
 11 12  2  0  0  0  0
M  END
>  <CHROM.1>
5.99649133,17.61483757,3.23973105,-1.52541332,-0.68093932,-1.66231955

>  <Name>
ligand

>  <RI>
0

>  <Rbt.Current_Directory>
/home/itssahil/PROJECTS/Mol_Feturizer/Test_systems_manuscript/rnas/4lx5

>  <Rbt.Executable>
rbdock ($Id: //depot/dev/client3/rdock/2013.1/src/exe/rbdock.cxx#4 $)

>  <Rbt.Library>
libRbt.so (2013.1, Build901 2013/11/27)

>  <Rbt.Parameter_File>
/export/apps/rDock/src/rDock_2013.1_src/data/scripts/dock_solv.prm

>  <Rbt.Receptor>
prm/blind_docking_100.prm

>  <SCORE>
-12.2756

>  <SCORE.INTER>
-12.2756

>  <SCORE.INTER.CONST>
1

>  <SCORE.INTER.POLAR>
0

>  <SCORE.INTER.ROT>
0

>  <SCORE.INTER.SOLV>
15.7621

>  <SCORE.INTER.VDW>
-17.0378

>  <SCORE.INTER.norm>
-1.02297

>  <SCORE.INTRA>
0

>  <SCORE.INTRA.DIHEDRAL>
0

>  <SCORE.INTRA.DIHEDRAL.0>
0

>  <SCORE.INTRA.POLAR>
0

>  <SCORE.INTRA.POLAR.0>
0

>  <SCORE.INTRA.REPUL>
0

>  <SCORE.INTRA.REPUL.0>
0

>  <SCORE.INTRA.SOLV>
0

>  <SCORE.INTRA.SOLV.lig_0>
-48.1583

>  <SCORE.INTRA.VDW>
0

>  <SCORE.INTRA.VDW.0>
0

>  <SCORE.INTRA.norm>
0

>  <SCORE.RESTR>
0

>  <SCORE.RESTR.CAVITY>
0

>  <SCORE.RESTR.norm>
0

>  <SCORE.SYSTEM>
0

>  <SCORE.SYSTEM.CONST>
0

>  <SCORE.SYSTEM.DIHEDRAL>
0

>  <SCORE.SYSTEM.SOLV>
0

>  <SCORE.SYSTEM.norm>
0

>  <SCORE.heavy>
12

>  <SCORE.norm>
-1.02297

>  <RMSD>
3.675

$$$$
ligand
 OpenBabel02271912143D
libRbt.so/2013.1/901 2013/11/27
 12 13  0  0  0  0  0  0  0  0999 V2000
    6.5422   18.2104    5.4516 C   0  0  0  0  0  0  0  0  0  0  0  0
    5.0343   16.8296    4.3315 C   0  0  0  0  0  0  0  0  0  0  0  0
    6.9961   18.7089    6.5980 N   0  0  0  0  0  0  0  0  0  0  0  0
    3.9886   15.9961    4.3020 N   0  0  0  0  0  0  0  0  0  0  0  0
    5.4906   17.3625    5.4728 N   0  0  0  0  0  0  0  0  0  0  0  0
    7.1540   18.5365    4.2915 N   0  0  0  0  0  0  0  0  0  0  0  0
    5.7866   16.9710    0.7146 N   0  0  0  0  0  0  0  0  0  0  0  0
    6.8799   17.8506    0.7324 C   0  0  0  0  0  0  0  0  0  0  0  0
    7.3348   18.3886    1.9590 N   0  0  0  0  0  0  0  0  0  0  0  0
    6.7225   18.0319    3.1087 C   0  0  0  0  0  0  0  0  0  0  0  0
    5.6390   17.1475    3.1091 C   0  0  0  0  0  0  0  0  0  0  0  0
    5.1550   16.6055    1.9199 C   0  0  0  0  0  0  0  0  0  0  0  0
  1  3  1  0  0  0  0
  1  5  1  0  0  0  0
  1  6  2  0  0  0  0
  2  5  2  0  0  0  0
  2 11  1  0  0  0  0
  2  4  1  0  0  0  0
  6 10  1  0  0  0  0
  7  8  2  0  0  0  0
  7 12  1  0  0  0  0
  8  9  1  0  0  0  0
  9 10  2  0  0  0  0
 10 11  1  0  0  0  0
 11 12  2  0  0  0  0
M  END
>  <CHROM.1>
6.06529414,17.56147792,3.52921206,-1.55568247,-0.67455489,-1.70176964

>  <Name>
ligand

>  <RI>
0

>  <Rbt.Current_Directory>
/home/itssahil/PROJECTS/Mol_Feturizer/Test_systems_manuscript/rnas/4lx5

>  <Rbt.Executable>
rbdock ($Id: //depot/dev/client3/rdock/2013.1/src/exe/rbdock.cxx#4 $)

>  <Rbt.Library>
libRbt.so (2013.1, Build901 2013/11/27)

>  <Rbt.Parameter_File>
/export/apps/rDock/src/rDock_2013.1_src/data/scripts/dock_solv.prm

>  <Rbt.Receptor>
prm/blind_docking_40.prm

>  <SCORE>
-12.233

>  <SCORE.INTER>
-12.233

>  <SCORE.INTER.CONST>
1

>  <SCORE.INTER.POLAR>
0

>  <SCORE.INTER.ROT>
0

>  <SCORE.INTER.SOLV>
17.4717

>  <SCORE.INTER.VDW>
-17.5792

>  <SCORE.INTER.norm>
-1.01941

>  <SCORE.INTRA>
0

>  <SCORE.INTRA.DIHEDRAL>
0

>  <SCORE.INTRA.DIHEDRAL.0>
0

>  <SCORE.INTRA.POLAR>
0

>  <SCORE.INTRA.POLAR.0>
0

>  <SCORE.INTRA.REPUL>
0

>  <SCORE.INTRA.REPUL.0>
0

>  <SCORE.INTRA.SOLV>
0

>  <SCORE.INTRA.SOLV.lig_0>
-48.1583

>  <SCORE.INTRA.VDW>
0

>  <SCORE.INTRA.VDW.0>
0

>  <SCORE.INTRA.norm>
0

>  <SCORE.RESTR>
0

>  <SCORE.RESTR.CAVITY>
0

>  <SCORE.RESTR.norm>
0

>  <SCORE.SYSTEM>
0

>  <SCORE.SYSTEM.CONST>
0

>  <SCORE.SYSTEM.DIHEDRAL>
0

>  <SCORE.SYSTEM.SOLV>
0

>  <SCORE.SYSTEM.norm>
0

>  <SCORE.heavy>
12

>  <SCORE.norm>
-1.01941

>  <RMSD>
3.675

$$$$
ligand
 OpenBabel02271912143D
libRbt.so/2013.1/901 2013/11/27
 12 13  0  0  0  0  0  0  0  0999 V2000
    6.4468   18.1830    5.4713 C   0  0  0  0  0  0  0  0  0  0  0  0
    4.9752   16.7795    4.3314 C   0  0  0  0  0  0  0  0  0  0  0  0
    6.8814   18.6842    6.6240 N   0  0  0  0  0  0  0  0  0  0  0  0
    3.9459   15.9264    4.2888 N   0  0  0  0  0  0  0  0  0  0  0  0
    5.4115   17.3151    5.4792 N   0  0  0  0  0  0  0  0  0  0  0  0
    7.0622   18.5266    4.3181 N   0  0  0  0  0  0  0  0  0  0  0  0
    5.7554   16.9537    0.7219 N   0  0  0  0  0  0  0  0  0  0  0  0
    6.8316   17.8539    0.7534 C   0  0  0  0  0  0  0  0  0  0  0  0
    7.2656   18.3941    1.9865 N   0  0  0  0  0  0  0  0  0  0  0  0
    6.6505   18.0199    3.1291 C   0  0  0  0  0  0  0  0  0  0  0  0
    5.5841   17.1151    3.1158 C   0  0  0  0  0  0  0  0  0  0  0  0
    5.1207   16.5700    1.9198 C   0  0  0  0  0  0  0  0  0  0  0  0
  1  3  1  0  0  0  0
  1  5  1  0  0  0  0
  1  6  2  0  0  0  0
  2  5  2  0  0  0  0
  2 11  1  0  0  0  0
  2  4  1  0  0  0  0
  6 10  1  0  0  0  0
  7  8  2  0  0  0  0
  7 12  1  0  0  0  0
  8  9  1  0  0  0  0
  9 10  2  0  0  0  0
 10 11  1  0  0  0  0
 11 12  2  0  0  0  0
M  END
>  <CHROM.1>
5.99882367,17.53496306,3.54164111,-1.56990077,-0.69232438,-1.70570888

>  <Name>
ligand

>  <RI>
0

>  <Rbt.Current_Directory>
/home/itssahil/PROJECTS/Mol_Feturizer/Test_systems_manuscript/rnas/4lx5

>  <Rbt.Executable>
rbdock ($Id: //depot/dev/client3/rdock/2013.1/src/exe/rbdock.cxx#4 $)

>  <Rbt.Library>
libRbt.so (2013.1, Build901 2013/11/27)

>  <Rbt.Parameter_File>
/export/apps/rDock/src/rDock_2013.1_src/data/scripts/dock_solv.prm

>  <Rbt.Receptor>
prm/blind_docking_60.prm

>  <SCORE>
-12.269

>  <SCORE.INTER>
-12.269

>  <SCORE.INTER.CONST>
1

>  <SCORE.INTER.POLAR>
0

>  <SCORE.INTER.ROT>
0

>  <SCORE.INTER.SOLV>
17.6884

>  <SCORE.INTER.VDW>
-17.6754

>  <SCORE.INTER.norm>
-1.02241

>  <SCORE.INTRA>
0

>  <SCORE.INTRA.DIHEDRAL>
0

>  <SCORE.INTRA.DIHEDRAL.0>
0

>  <SCORE.INTRA.POLAR>
0

>  <SCORE.INTRA.POLAR.0>
0

>  <SCORE.INTRA.REPUL>
0

>  <SCORE.INTRA.REPUL.0>
0

>  <SCORE.INTRA.SOLV>
0

>  <SCORE.INTRA.SOLV.lig_0>
-48.1583

>  <SCORE.INTRA.VDW>
0

>  <SCORE.INTRA.VDW.0>
0

>  <SCORE.INTRA.norm>
0

>  <SCORE.RESTR>
0

>  <SCORE.RESTR.CAVITY>
0

>  <SCORE.RESTR.norm>
0

>  <SCORE.SYSTEM>
0

>  <SCORE.SYSTEM.CONST>
0

>  <SCORE.SYSTEM.DIHEDRAL>
0

>  <SCORE.SYSTEM.SOLV>
0

>  <SCORE.SYSTEM.norm>
0

>  <SCORE.heavy>
12

>  <SCORE.norm>
-1.02241

>  <RMSD>
3.675

$$$$
ligand
 OpenBabel02271912143D
libRbt.so/2013.1/901 2013/11/27
 12 13  0  0  0  0  0  0  0  0999 V2000
    6.4519   18.1090    5.1635 C   0  0  0  0  0  0  0  0  0  0  0  0
    4.9021   16.8036    4.0105 C   0  0  0  0  0  0  0  0  0  0  0  0
    6.9294   18.5540    6.3222 N   0  0  0  0  0  0  0  0  0  0  0  0
    3.8386   15.9939    3.9624 N   0  0  0  0  0  0  0  0  0  0  0  0
    5.3827   17.2831    5.1654 N   0  0  0  0  0  0  0  0  0  0  0  0
    7.0573   18.4660    4.0090 N   0  0  0  0  0  0  0  0  0  0  0  0
    5.6159   17.0664    0.3926 N   0  0  0  0  0  0  0  0  0  0  0  0
    6.7280   17.9216    0.4302 C   0  0  0  0  0  0  0  0  0  0  0  0
    7.2082   18.4030    1.6706 N   0  0  0  0  0  0  0  0  0  0  0  0
    6.6016   18.0158    2.8134 C   0  0  0  0  0  0  0  0  0  0  0  0
    5.4995   17.1549    2.7937 C   0  0  0  0  0  0  0  0  0  0  0  0
    4.9905   16.6687    1.5909 C   0  0  0  0  0  0  0  0  0  0  0  0
  1  3  1  0  0  0  0
  1  5  1  0  0  0  0
  1  6  2  0  0  0  0
  2  5  2  0  0  0  0
  2 11  1  0  0  0  0
  2  4  1  0  0  0  0
  6 10  1  0  0  0  0
  7  8  2  0  0  0  0
  7 12  1  0  0  0  0
  8  9  1  0  0  0  0
  9 10  2  0  0  0  0
 10 11  1  0  0  0  0
 11 12  2  0  0  0  0
M  END
>  <CHROM.1>
5.93929890,17.54365931,3.22388000,-1.53789649,-0.65476897,-1.65294584

>  <Name>
ligand

>  <RI>
0

>  <Rbt.Current_Directory>
/home/itssahil/PROJECTS/Mol_Feturizer/Test_systems_manuscript/rnas/4lx5

>  <Rbt.Executable>
rbdock ($Id: //depot/dev/client3/rdock/2013.1/src/exe/rbdock.cxx#4 $)

>  <Rbt.Library>
libRbt.so (2013.1, Build901 2013/11/27)

>  <Rbt.Parameter_File>
/export/apps/rDock/src/rDock_2013.1_src/data/scripts/dock_solv.prm

>  <Rbt.Receptor>
prm/blind_docking_40.prm

>  <SCORE>
-12.2287

>  <SCORE.INTER>
-12.2287

>  <SCORE.INTER.CONST>
1

>  <SCORE.INTER.POLAR>
0

>  <SCORE.INTER.ROT>
0

>  <SCORE.INTER.SOLV>
15.6824

>  <SCORE.INTER.VDW>
-16.9799

>  <SCORE.INTER.norm>
-1.01906

>  <SCORE.INTRA>
0

>  <SCORE.INTRA.DIHEDRAL>
0

>  <SCORE.INTRA.DIHEDRAL.0>
0

>  <SCORE.INTRA.POLAR>
0

>  <SCORE.INTRA.POLAR.0>
0

>  <SCORE.INTRA.REPUL>
0

>  <SCORE.INTRA.REPUL.0>
0

>  <SCORE.INTRA.SOLV>
0

>  <SCORE.INTRA.SOLV.lig_0>
-48.1583

>  <SCORE.INTRA.VDW>
0

>  <SCORE.INTRA.VDW.0>
0

>  <SCORE.INTRA.norm>
0

>  <SCORE.RESTR>
0

>  <SCORE.RESTR.CAVITY>
0

>  <SCORE.RESTR.norm>
0

>  <SCORE.SYSTEM>
0

>  <SCORE.SYSTEM.CONST>
0

>  <SCORE.SYSTEM.DIHEDRAL>
0

>  <SCORE.SYSTEM.SOLV>
0

>  <SCORE.SYSTEM.norm>
0

>  <SCORE.heavy>
12

>  <SCORE.norm>
-1.01906

>  <RMSD>
3.676

$$$$
ligand
 OpenBabel02271912143D
libRbt.so/2013.1/901 2013/11/27
 12 13  0  0  0  0  0  0  0  0999 V2000
    6.4213   18.1410    5.2107 C   0  0  0  0  0  0  0  0  0  0  0  0
    4.9174   16.8055    4.0319 C   0  0  0  0  0  0  0  0  0  0  0  0
    6.8682   18.5977    6.3772 N   0  0  0  0  0  0  0  0  0  0  0  0
    3.8691   15.9774    3.9656 N   0  0  0  0  0  0  0  0  0  0  0  0
    5.3667   17.2968    5.1944 N   0  0  0  0  0  0  0  0  0  0  0  0
    7.0432   18.5049    4.0673 N   0  0  0  0  0  0  0  0  0  0  0  0
    5.6978   17.0697    0.4279 N   0  0  0  0  0  0  0  0  0  0  0  0
    6.7940   17.9441    0.4845 C   0  0  0  0  0  0  0  0  0  0  0  0
    7.2413   18.4375    1.7324 N   0  0  0  0  0  0  0  0  0  0  0  0
    6.6190   18.0433    2.8644 C   0  0  0  0  0  0  0  0  0  0  0  0
    5.5325   17.1635    2.8259 C   0  0  0  0  0  0  0  0  0  0  0  0
    5.0558   16.6649    1.6150 C   0  0  0  0  0  0  0  0  0  0  0  0
  1  3  1  0  0  0  0
  1  5  1  0  0  0  0
  1  6  2  0  0  0  0
  2  5  2  0  0  0  0
  2 11  1  0  0  0  0
  2  4  1  0  0  0  0
  6 10  1  0  0  0  0
  7  8  2  0  0  0  0
  7 12  1  0  0  0  0
  8  9  1  0  0  0  0
  9 10  2  0  0  0  0
 10 11  1  0  0  0  0
 11 12  2  0  0  0  0
M  END
>  <CHROM.1>
5.95694548,17.56102770,3.26335952,-1.56480879,-0.67013881,-1.67269787

>  <Name>
ligand

>  <RI>
0

>  <Rbt.Current_Directory>
/home/itssahil/PROJECTS/Mol_Feturizer/Test_systems_manuscript/rnas/4lx5

>  <Rbt.Executable>
rbdock ($Id: //depot/dev/client3/rdock/2013.1/src/exe/rbdock.cxx#4 $)

>  <Rbt.Library>
libRbt.so (2013.1, Build901 2013/11/27)

>  <Rbt.Parameter_File>
/export/apps/rDock/src/rDock_2013.1_src/data/scripts/dock_solv.prm

>  <Rbt.Receptor>
prm/blind_docking_60.prm

>  <SCORE>
-12.3106

>  <SCORE.INTER>
-12.3106

>  <SCORE.INTER.CONST>
1

>  <SCORE.INTER.POLAR>
0

>  <SCORE.INTER.ROT>
0

>  <SCORE.INTER.SOLV>
15.9614

>  <SCORE.INTER.VDW>
-17.1275

>  <SCORE.INTER.norm>
-1.02588

>  <SCORE.INTRA>
0

>  <SCORE.INTRA.DIHEDRAL>
0

>  <SCORE.INTRA.DIHEDRAL.0>
0

>  <SCORE.INTRA.POLAR>
0

>  <SCORE.INTRA.POLAR.0>
0

>  <SCORE.INTRA.REPUL>
0

>  <SCORE.INTRA.REPUL.0>
0

>  <SCORE.INTRA.SOLV>
0

>  <SCORE.INTRA.SOLV.lig_0>
-48.1583

>  <SCORE.INTRA.VDW>
0

>  <SCORE.INTRA.VDW.0>
0

>  <SCORE.INTRA.norm>
0

>  <SCORE.RESTR>
0

>  <SCORE.RESTR.CAVITY>
0

>  <SCORE.RESTR.norm>
0

>  <SCORE.SYSTEM>
0

>  <SCORE.SYSTEM.CONST>
0

>  <SCORE.SYSTEM.DIHEDRAL>
0

>  <SCORE.SYSTEM.SOLV>
0

>  <SCORE.SYSTEM.norm>
0

>  <SCORE.heavy>
12

>  <SCORE.norm>
-1.02588

>  <RMSD>
3.677

$$$$
ligand
 OpenBabel02271912143D
libRbt.so/2013.1/901 2013/11/27
 12 13  0  0  0  0  0  0  0  0999 V2000
    6.3053   18.1512    5.3499 C   0  0  0  0  0  0  0  0  0  0  0  0
    4.8622   16.7866    4.1292 C   0  0  0  0  0  0  0  0  0  0  0  0
    6.7076   18.6190    6.5281 N   0  0  0  0  0  0  0  0  0  0  0  0
    3.8308   15.9404    4.0331 N   0  0  0  0  0  0  0  0  0  0  0  0
    5.2664   17.2889    5.3036 N   0  0  0  0  0  0  0  0  0  0  0  0
    6.9563   18.5226    4.2252 N   0  0  0  0  0  0  0  0  0  0  0  0
    5.7504   17.0537    0.5505 N   0  0  0  0  0  0  0  0  0  0  0  0
    6.8291   17.9471    0.6384 C   0  0  0  0  0  0  0  0  0  0  0  0
    7.2285   18.4517    1.8979 N   0  0  0  0  0  0  0  0  0  0  0  0
    6.5780   18.0502    3.0112 C   0  0  0  0  0  0  0  0  0  0  0  0
    5.5085   17.1516    2.9418 C   0  0  0  0  0  0  0  0  0  0  0  0
    5.0785   16.6413    1.7183 C   0  0  0  0  0  0  0  0  0  0  0  0
  1  3  1  0  0  0  0
  1  5  1  0  0  0  0
  1  6  2  0  0  0  0
  2  5  2  0  0  0  0
  2 11  1  0  0  0  0
  2  4  1  0  0  0  0
  6 10  1  0  0  0  0
  7  8  2  0  0  0  0
  7 12  1  0  0  0  0
  8  9  1  0  0  0  0
  9 10  2  0  0  0  0
 10 11  1  0  0  0  0
 11 12  2  0  0  0  0
M  END
>  <CHROM.1>
5.91217484,17.55770774,3.39096687,-1.60723632,-0.68359530,-1.70244496

>  <Name>
ligand

>  <RI>
0

>  <Rbt.Current_Directory>
/home/itssahil/PROJECTS/Mol_Feturizer/Test_systems_manuscript/rnas/4lx5

>  <Rbt.Executable>
rbdock ($Id: //depot/dev/client3/rdock/2013.1/src/exe/rbdock.cxx#4 $)

>  <Rbt.Library>
libRbt.so (2013.1, Build901 2013/11/27)

>  <Rbt.Parameter_File>
/export/apps/rDock/src/rDock_2013.1_src/data/scripts/dock_solv.prm

>  <Rbt.Receptor>
prm/pocket_docking_8.prm

>  <SCORE>
-12.2351

>  <SCORE.INTER>
-12.2351

>  <SCORE.INTER.CONST>
1

>  <SCORE.INTER.POLAR>
0

>  <SCORE.INTER.ROT>
0

>  <SCORE.INTER.SOLV>
16.9129

>  <SCORE.INTER.VDW>
-17.3944

>  <SCORE.INTER.norm>
-1.0196

>  <SCORE.INTRA>
0

>  <SCORE.INTRA.DIHEDRAL>
0

>  <SCORE.INTRA.DIHEDRAL.0>
0

>  <SCORE.INTRA.POLAR>
0

>  <SCORE.INTRA.POLAR.0>
0

>  <SCORE.INTRA.REPUL>
0

>  <SCORE.INTRA.REPUL.0>
0

>  <SCORE.INTRA.SOLV>
0

>  <SCORE.INTRA.SOLV.lig_0>
-48.1583

>  <SCORE.INTRA.VDW>
0

>  <SCORE.INTRA.VDW.0>
0

>  <SCORE.INTRA.norm>
0

>  <SCORE.RESTR>
0

>  <SCORE.RESTR.CAVITY>
0

>  <SCORE.RESTR.norm>
0

>  <SCORE.SYSTEM>
0

>  <SCORE.SYSTEM.CONST>
0

>  <SCORE.SYSTEM.DIHEDRAL>
0

>  <SCORE.SYSTEM.SOLV>
0

>  <SCORE.SYSTEM.norm>
0

>  <SCORE.heavy>
12

>  <SCORE.norm>
-1.0196

>  <RMSD>
3.679

$$$$
ligand
 OpenBabel02271912143D
libRbt.so/2013.1/901 2013/11/27
 12 13  0  0  0  0  0  0  0  0999 V2000
    6.4452   18.3017    5.1465 C   0  0  0  0  0  0  0  0  0  0  0  0
    4.9591   16.8849    4.0422 C   0  0  0  0  0  0  0  0  0  0  0  0
    6.8985   18.8119    6.2879 N   0  0  0  0  0  0  0  0  0  0  0  0
    3.9330   16.0271    4.0237 N   0  0  0  0  0  0  0  0  0  0  0  0
    5.4140   17.4294    5.1786 N   0  0  0  0  0  0  0  0  0  0  0  0
    7.0378   18.6409    3.9801 N   0  0  0  0  0  0  0  0  0  0  0  0
    5.6723   17.0402    0.4180 N   0  0  0  0  0  0  0  0  0  0  0  0
    6.7449   17.9452    0.4244 C   0  0  0  0  0  0  0  0  0  0  0  0
    7.1990   18.4949    1.6460 N   0  0  0  0  0  0  0  0  0  0  0  0
    6.6066   18.1251    2.8020 C   0  0  0  0  0  0  0  0  0  0  0  0
    5.5442   17.2156    2.8137 C   0  0  0  0  0  0  0  0  0  0  0  0
    5.0613   16.6612    1.6298 C   0  0  0  0  0  0  0  0  0  0  0  0
  1  3  1  0  0  0  0
  1  5  1  0  0  0  0
  1  6  2  0  0  0  0
  2  5  2  0  0  0  0
  2 11  1  0  0  0  0
  2  4  1  0  0  0  0
  6 10  1  0  0  0  0
  7  8  2  0  0  0  0
  7 12  1  0  0  0  0
  8  9  1  0  0  0  0
  9 10  2  0  0  0  0
 10 11  1  0  0  0  0
 11 12  2  0  0  0  0
M  END
>  <CHROM.1>
5.96471595,17.63988111,3.22930634,-1.54695466,-0.69904103,-1.69711537

>  <Name>
ligand

>  <RI>
0

>  <Rbt.Current_Directory>
/home/itssahil/PROJECTS/Mol_Feturizer/Test_systems_manuscript/rnas/4lx5

>  <Rbt.Executable>
rbdock ($Id: //depot/dev/client3/rdock/2013.1/src/exe/rbdock.cxx#4 $)

>  <Rbt.Library>
libRbt.so (2013.1, Build901 2013/11/27)

>  <Rbt.Parameter_File>
/export/apps/rDock/src/rDock_2013.1_src/data/scripts/dock_solv.prm

>  <Rbt.Receptor>
prm/blind_docking_60.prm

>  <SCORE>
-12.2524

>  <SCORE.INTER>
-12.2524

>  <SCORE.INTER.CONST>
1

>  <SCORE.INTER.POLAR>
0

>  <SCORE.INTER.ROT>
0

>  <SCORE.INTER.SOLV>
16.0141

>  <SCORE.INTER.VDW>
-17.1063

>  <SCORE.INTER.norm>
-1.02103

>  <SCORE.INTRA>
0

>  <SCORE.INTRA.DIHEDRAL>
0

>  <SCORE.INTRA.DIHEDRAL.0>
0

>  <SCORE.INTRA.POLAR>
0

>  <SCORE.INTRA.POLAR.0>
0

>  <SCORE.INTRA.REPUL>
0

>  <SCORE.INTRA.REPUL.0>
0

>  <SCORE.INTRA.SOLV>
0

>  <SCORE.INTRA.SOLV.lig_0>
-48.1583

>  <SCORE.INTRA.VDW>
0

>  <SCORE.INTRA.VDW.0>
0

>  <SCORE.INTRA.norm>
0

>  <SCORE.RESTR>
0

>  <SCORE.RESTR.CAVITY>
0

>  <SCORE.RESTR.norm>
0

>  <SCORE.SYSTEM>
0

>  <SCORE.SYSTEM.CONST>
0

>  <SCORE.SYSTEM.DIHEDRAL>
0

>  <SCORE.SYSTEM.SOLV>
0

>  <SCORE.SYSTEM.norm>
0

>  <SCORE.heavy>
12

>  <SCORE.norm>
-1.02103

>  <RMSD>
3.680

$$$$
ligand
 OpenBabel02271912143D
libRbt.so/2013.1/901 2013/11/27
 12 13  0  0  0  0  0  0  0  0999 V2000
    6.4199   18.2739    5.1823 C   0  0  0  0  0  0  0  0  0  0  0  0
    4.9557   16.8633    4.0415 C   0  0  0  0  0  0  0  0  0  0  0  0
    6.8520   18.7766    6.3353 N   0  0  0  0  0  0  0  0  0  0  0  0
    3.9312   16.0046    3.9985 N   0  0  0  0  0  0  0  0  0  0  0  0
    5.3893   17.4004    5.1897 N   0  0  0  0  0  0  0  0  0  0  0  0
    7.0331   18.6219    4.0292 N   0  0  0  0  0  0  0  0  0  0  0  0
    5.7341   17.0447    0.4320 N   0  0  0  0  0  0  0  0  0  0  0  0
    6.8053   17.9508    0.4640 C   0  0  0  0  0  0  0  0  0  0  0  0
    7.2366   18.4924    1.6974 N   0  0  0  0  0  0  0  0  0  0  0  0
    6.6239   18.1139    2.8399 C   0  0  0  0  0  0  0  0  0  0  0  0
    5.5625   17.2032    2.8261 C   0  0  0  0  0  0  0  0  0  0  0  0
    5.1018   16.6566    1.6298 C   0  0  0  0  0  0  0  0  0  0  0  0
  1  3  1  0  0  0  0
  1  5  1  0  0  0  0
  1  6  2  0  0  0  0
  2  5  2  0  0  0  0
  2 11  1  0  0  0  0
  2  4  1  0  0  0  0
  6 10  1  0  0  0  0
  7  8  2  0  0  0  0
  7 12  1  0  0  0  0
  8  9  1  0  0  0  0
  9 10  2  0  0  0  0
 10 11  1  0  0  0  0
 11 12  2  0  0  0  0
M  END
>  <CHROM.1>
5.97495815,17.62505075,3.25217312,-1.57054689,-0.69782134,-1.70530487

>  <Name>
ligand

>  <RI>
0

>  <Rbt.Current_Directory>
/home/itssahil/PROJECTS/Mol_Feturizer/Test_systems_manuscript/rnas/4lx5

>  <Rbt.Executable>
rbdock ($Id: //depot/dev/client3/rdock/2013.1/src/exe/rbdock.cxx#4 $)

>  <Rbt.Library>
libRbt.so (2013.1, Build901 2013/11/27)

>  <Rbt.Parameter_File>
/export/apps/rDock/src/rDock_2013.1_src/data/scripts/dock_solv.prm

>  <Rbt.Receptor>
prm/pocket_docking_7.prm

>  <SCORE>
-12.2959

>  <SCORE.INTER>
-12.2959

>  <SCORE.INTER.CONST>
1

>  <SCORE.INTER.POLAR>
0

>  <SCORE.INTER.ROT>
0

>  <SCORE.INTER.SOLV>
16.1113

>  <SCORE.INTER.VDW>
-17.1677

>  <SCORE.INTER.norm>
-1.02466

>  <SCORE.INTRA>
0

>  <SCORE.INTRA.DIHEDRAL>
0

>  <SCORE.INTRA.DIHEDRAL.0>
0

>  <SCORE.INTRA.POLAR>
0

>  <SCORE.INTRA.POLAR.0>
0

>  <SCORE.INTRA.REPUL>
0

>  <SCORE.INTRA.REPUL.0>
0

>  <SCORE.INTRA.SOLV>
0

>  <SCORE.INTRA.SOLV.lig_0>
-48.1583

>  <SCORE.INTRA.VDW>
0

>  <SCORE.INTRA.VDW.0>
0

>  <SCORE.INTRA.norm>
0

>  <SCORE.RESTR>
0

>  <SCORE.RESTR.CAVITY>
0

>  <SCORE.RESTR.norm>
0

>  <SCORE.SYSTEM>
0

>  <SCORE.SYSTEM.CONST>
0

>  <SCORE.SYSTEM.DIHEDRAL>
0

>  <SCORE.SYSTEM.SOLV>
0

>  <SCORE.SYSTEM.norm>
0

>  <SCORE.heavy>
12

>  <SCORE.norm>
-1.02466

>  <RMSD>
3.680

$$$$
ligand
 OpenBabel02271912143D
libRbt.so/2013.1/901 2013/11/27
 12 13  0  0  0  0  0  0  0  0999 V2000
    6.4079   18.1693    5.1857 C   0  0  0  0  0  0  0  0  0  0  0  0
    4.8893   16.8631    3.9929 C   0  0  0  0  0  0  0  0  0  0  0  0
    6.8505   18.6201    6.3560 N   0  0  0  0  0  0  0  0  0  0  0  0
    3.8240   16.0580    3.9165 N   0  0  0  0  0  0  0  0  0  0  0  0
    5.3352   17.3483    5.1592 N   0  0  0  0  0  0  0  0  0  0  0  0
    7.0513   18.5157    4.0487 N   0  0  0  0  0  0  0  0  0  0  0  0
    5.7187   17.0978    0.3978 N   0  0  0  0  0  0  0  0  0  0  0  0
    6.8331   17.9482    0.4650 C   0  0  0  0  0  0  0  0  0  0  0  0
    7.2760   18.4359    1.7167 N   0  0  0  0  0  0  0  0  0  0  0  0
    6.6316   18.0593    2.8422 C   0  0  0  0  0  0  0  0  0  0  0  0
    5.5266   17.2034    2.7933 C   0  0  0  0  0  0  0  0  0  0  0  0
    5.0537   16.7112    1.5783 C   0  0  0  0  0  0  0  0  0  0  0  0
  1  3  1  0  0  0  0
  1  5  1  0  0  0  0
  1  6  2  0  0  0  0
  2  5  2  0  0  0  0
  2 11  1  0  0  0  0
  2  4  1  0  0  0  0
  6 10  1  0  0  0  0
  7  8  2  0  0  0  0
  7 12  1  0  0  0  0
  8  9  1  0  0  0  0
  9 10  2  0  0  0  0
 10 11  1  0  0  0  0
 11 12  2  0  0  0  0
M  END
>  <CHROM.1>
5.95437938,17.59303004,3.23464899,-1.57704421,-0.64704455,-1.68345511

>  <Name>
ligand

>  <RI>
0

>  <Rbt.Current_Directory>
/home/itssahil/PROJECTS/Mol_Feturizer/Test_systems_manuscript/rnas/4lx5

>  <Rbt.Executable>
rbdock ($Id: //depot/dev/client3/rdock/2013.1/src/exe/rbdock.cxx#4 $)

>  <Rbt.Library>
libRbt.so (2013.1, Build901 2013/11/27)

>  <Rbt.Parameter_File>
/export/apps/rDock/src/rDock_2013.1_src/data/scripts/dock_solv.prm

>  <Rbt.Receptor>
prm/blind_docking_80.prm

>  <SCORE>
-12.2307

>  <SCORE.INTER>
-12.2307

>  <SCORE.INTER.CONST>
1

>  <SCORE.INTER.POLAR>
0

>  <SCORE.INTER.ROT>
0

>  <SCORE.INTER.SOLV>
15.8974

>  <SCORE.INTER.VDW>
-17.0529

>  <SCORE.INTER.norm>
-1.01923

>  <SCORE.INTRA>
0

>  <SCORE.INTRA.DIHEDRAL>
0

>  <SCORE.INTRA.DIHEDRAL.0>
0

>  <SCORE.INTRA.POLAR>
0

>  <SCORE.INTRA.POLAR.0>
0

>  <SCORE.INTRA.REPUL>
0

>  <SCORE.INTRA.REPUL.0>
0

>  <SCORE.INTRA.SOLV>
0

>  <SCORE.INTRA.SOLV.lig_0>
-48.1583

>  <SCORE.INTRA.VDW>
0

>  <SCORE.INTRA.VDW.0>
0

>  <SCORE.INTRA.norm>
0

>  <SCORE.RESTR>
0

>  <SCORE.RESTR.CAVITY>
0

>  <SCORE.RESTR.norm>
0

>  <SCORE.SYSTEM>
0

>  <SCORE.SYSTEM.CONST>
0

>  <SCORE.SYSTEM.DIHEDRAL>
0

>  <SCORE.SYSTEM.SOLV>
0

>  <SCORE.SYSTEM.norm>
0

>  <SCORE.heavy>
12

>  <SCORE.norm>
-1.01923

>  <RMSD>
3.684

$$$$
ligand
 OpenBabel02271912143D
libRbt.so/2013.1/901 2013/11/27
 12 13  0  0  0  0  0  0  0  0999 V2000
    6.5615   18.9409    5.0189 C   0  0  0  0  0  0  0  0  0  0  0  0
    6.8810   17.8672    2.9744 C   0  0  0  0  0  0  0  0  0  0  0  0
    6.7984   19.9859    5.8067 N   0  0  0  0  0  0  0  0  0  0  0  0
    7.4288   17.7761    1.7576 N   0  0  0  0  0  0  0  0  0  0  0  0
    7.1275   18.8987    3.7929 N   0  0  0  0  0  0  0  0  0  0  0  0
    5.7402   17.9552    5.4440 N   0  0  0  0  0  0  0  0  0  0  0  0
    4.9557   14.7112    2.9995 N   0  0  0  0  0  0  0  0  0  0  0  0
    4.3813   14.7922    4.2774 C   0  0  0  0  0  0  0  0  0  0  0  0
    4.6626   15.9004    5.1102 N   0  0  0  0  0  0  0  0  0  0  0  0
    5.4684   16.8847    4.6567 C   0  0  0  0  0  0  0  0  0  0  0  0
    6.0395   16.8245    3.3814 C   0  0  0  0  0  0  0  0  0  0  0  0
    5.7951   15.7437    2.5362 C   0  0  0  0  0  0  0  0  0  0  0  0
  1  3  1  0  0  0  0
  1  5  1  0  0  0  0
  1  6  2  0  0  0  0
  2  5  2  0  0  0  0
  2 11  1  0  0  0  0
  2  4  1  0  0  0  0
  6 10  1  0  0  0  0
  7  8  2  0  0  0  0
  7 12  1  0  0  0  0
  8  9  1  0  0  0  0
  9 10  2  0  0  0  0
 10 11  1  0  0  0  0
 11 12  2  0  0  0  0
M  END
>  <CHROM.1>
5.99682131,17.21674790,3.99286942,0.83437870,0.90912861,0.89914888

>  <Name>
ligand

>  <RI>
0

>  <Rbt.Current_Directory>
/home/itssahil/PROJECTS/Mol_Feturizer/Test_systems_manuscript/rnas/4lx5

>  <Rbt.Executable>
rbdock ($Id: //depot/dev/client3/rdock/2013.1/src/exe/rbdock.cxx#4 $)

>  <Rbt.Library>
libRbt.so (2013.1, Build901 2013/11/27)

>  <Rbt.Parameter_File>
/export/apps/rDock/src/rDock_2013.1_src/data/scripts/dock_solv.prm

>  <Rbt.Receptor>
prm/blind_docking_100.prm

>  <SCORE>
-10.0782

>  <SCORE.INTER>
-10.0782

>  <SCORE.INTER.CONST>
1

>  <SCORE.INTER.POLAR>
0

>  <SCORE.INTER.ROT>
0

>  <SCORE.INTER.SOLV>
23.9585

>  <SCORE.INTER.VDW>
-18.305

>  <SCORE.INTER.norm>
-0.839852

>  <SCORE.INTRA>
0

>  <SCORE.INTRA.DIHEDRAL>
0

>  <SCORE.INTRA.DIHEDRAL.0>
0

>  <SCORE.INTRA.POLAR>
0

>  <SCORE.INTRA.POLAR.0>
0

>  <SCORE.INTRA.REPUL>
0

>  <SCORE.INTRA.REPUL.0>
0

>  <SCORE.INTRA.SOLV>
0

>  <SCORE.INTRA.SOLV.lig_0>
-48.1583

>  <SCORE.INTRA.VDW>
0

>  <SCORE.INTRA.VDW.0>
0

>  <SCORE.INTRA.norm>
0

>  <SCORE.RESTR>
0

>  <SCORE.RESTR.CAVITY>
0

>  <SCORE.RESTR.norm>
0

>  <SCORE.SYSTEM>
0

>  <SCORE.SYSTEM.CONST>
0

>  <SCORE.SYSTEM.DIHEDRAL>
0

>  <SCORE.SYSTEM.SOLV>
0

>  <SCORE.SYSTEM.norm>
0

>  <SCORE.heavy>
12

>  <SCORE.norm>
-0.839852

>  <RMSD>
3.691

$$$$
ligand
 OpenBabel02271912143D
libRbt.so/2013.1/901 2013/11/27
 12 13  0  0  0  0  0  0  0  0999 V2000
    6.4714   19.0209    5.0120 C   0  0  0  0  0  0  0  0  0  0  0  0
    6.8438   17.9434    2.9784 C   0  0  0  0  0  0  0  0  0  0  0  0
    6.6716   20.0764    5.7959 N   0  0  0  0  0  0  0  0  0  0  0  0
    7.4087   17.8591    1.7690 N   0  0  0  0  0  0  0  0  0  0  0  0
    7.0534   18.9859    3.7932 N   0  0  0  0  0  0  0  0  0  0  0  0
    5.6707   18.0169    5.4334 N   0  0  0  0  0  0  0  0  0  0  0  0
    5.0005   14.7388    3.0003 N   0  0  0  0  0  0  0  0  0  0  0  0
    4.4084   14.8127    4.2706 C   0  0  0  0  0  0  0  0  0  0  0  0
    4.6507   15.9328    5.0996 N   0  0  0  0  0  0  0  0  0  0  0  0
    5.4364   16.9349    4.6496 C   0  0  0  0  0  0  0  0  0  0  0  0
    6.0245   16.8818    3.3818 C   0  0  0  0  0  0  0  0  0  0  0  0
    5.8186   15.7898    2.5407 C   0  0  0  0  0  0  0  0  0  0  0  0
  1  3  1  0  0  0  0
  1  5  1  0  0  0  0
  1  6  2  0  0  0  0
  2  5  2  0  0  0  0
  2 11  1  0  0  0  0
  2  4  1  0  0  0  0
  6 10  1  0  0  0  0
  7  8  2  0  0  0  0
  7 12  1  0  0  0  0
  8  9  1  0  0  0  0
  9 10  2  0  0  0  0
 10 11  1  0  0  0  0
 11 12  2  0  0  0  0
M  END
>  <CHROM.1>
5.96417445,17.27645469,3.99019514,0.87693866,0.92122508,0.85916597

>  <Name>
ligand

>  <RI>
0

>  <Rbt.Current_Directory>
/home/itssahil/PROJECTS/Mol_Feturizer/Test_systems_manuscript/rnas/4lx5

>  <Rbt.Executable>
rbdock ($Id: //depot/dev/client3/rdock/2013.1/src/exe/rbdock.cxx#4 $)

>  <Rbt.Library>
libRbt.so (2013.1, Build901 2013/11/27)

>  <Rbt.Parameter_File>
/export/apps/rDock/src/rDock_2013.1_src/data/scripts/dock_solv.prm

>  <Rbt.Receptor>
prm/blind_docking_100.prm

>  <SCORE>
-10.0919

>  <SCORE.INTER>
-10.0919

>  <SCORE.INTER.CONST>
1

>  <SCORE.INTER.POLAR>
0

>  <SCORE.INTER.ROT>
0

>  <SCORE.INTER.SOLV>
24.6689

>  <SCORE.INTER.VDW>
-18.5509

>  <SCORE.INTER.norm>
-0.84099

>  <SCORE.INTRA>
0

>  <SCORE.INTRA.DIHEDRAL>
0

>  <SCORE.INTRA.DIHEDRAL.0>
0

>  <SCORE.INTRA.POLAR>
0

>  <SCORE.INTRA.POLAR.0>
0

>  <SCORE.INTRA.REPUL>
0

>  <SCORE.INTRA.REPUL.0>
0

>  <SCORE.INTRA.SOLV>
0

>  <SCORE.INTRA.SOLV.lig_0>
-48.1583

>  <SCORE.INTRA.VDW>
0

>  <SCORE.INTRA.VDW.0>
0

>  <SCORE.INTRA.norm>
0

>  <SCORE.RESTR>
0

>  <SCORE.RESTR.CAVITY>
0

>  <SCORE.RESTR.norm>
0

>  <SCORE.SYSTEM>
0

>  <SCORE.SYSTEM.CONST>
0

>  <SCORE.SYSTEM.DIHEDRAL>
0

>  <SCORE.SYSTEM.SOLV>
0

>  <SCORE.SYSTEM.norm>
0

>  <SCORE.heavy>
12

>  <SCORE.norm>
-0.84099

>  <RMSD>
3.699

$$$$
ligand
 OpenBabel02271912143D
libRbt.so/2013.1/901 2013/11/27
 12 13  0  0  0  0  0  0  0  0999 V2000
    6.4726   19.0214    5.0174 C   0  0  0  0  0  0  0  0  0  0  0  0
    6.8519   17.9359    2.9894 C   0  0  0  0  0  0  0  0  0  0  0  0
    6.6689   20.0807    5.7973 N   0  0  0  0  0  0  0  0  0  0  0  0
    7.4199   17.8476    1.7817 N   0  0  0  0  0  0  0  0  0  0  0  0
    7.0576   18.9823    3.8002 N   0  0  0  0  0  0  0  0  0  0  0  0
    5.6728   18.0177    5.4412 N   0  0  0  0  0  0  0  0  0  0  0  0
    5.0146   14.7280    3.0206 N   0  0  0  0  0  0  0  0  0  0  0  0
    4.4194   14.8062    4.2891 C   0  0  0  0  0  0  0  0  0  0  0  0
    4.6576   15.9303    5.1139 N   0  0  0  0  0  0  0  0  0  0  0  0
    5.4424   16.9320    4.6615 C   0  0  0  0  0  0  0  0  0  0  0  0
    6.0337   16.8745    3.3953 C   0  0  0  0  0  0  0  0  0  0  0  0
    5.8318   15.7786    2.5584 C   0  0  0  0  0  0  0  0  0  0  0  0
  1  3  1  0  0  0  0
  1  5  1  0  0  0  0
  1  6  2  0  0  0  0
  2  5  2  0  0  0  0
  2 11  1  0  0  0  0
  2  4  1  0  0  0  0
  6 10  1  0  0  0  0
  7  8  2  0  0  0  0
  7 12  1  0  0  0  0
  8  9  1  0  0  0  0
  9 10  2  0  0  0  0
 10 11  1  0  0  0  0
 11 12  2  0  0  0  0
M  END
>  <CHROM.1>
5.97114250,17.27170463,4.00189748,0.88200177,0.92108886,0.85084641

>  <Name>
ligand

>  <RI>
0

>  <Rbt.Current_Directory>
/home/itssahil/PROJECTS/Mol_Feturizer/Test_systems_manuscript/rnas/4lx5

>  <Rbt.Executable>
rbdock ($Id: //depot/dev/client3/rdock/2013.1/src/exe/rbdock.cxx#4 $)

>  <Rbt.Library>
libRbt.so (2013.1, Build901 2013/11/27)

>  <Rbt.Parameter_File>
/export/apps/rDock/src/rDock_2013.1_src/data/scripts/dock_solv.prm

>  <Rbt.Receptor>
prm/pocket_docking_8.prm

>  <SCORE>
-10.0816

>  <SCORE.INTER>
-10.0816

>  <SCORE.INTER.CONST>
1

>  <SCORE.INTER.POLAR>
0

>  <SCORE.INTER.ROT>
0

>  <SCORE.INTER.SOLV>
24.685

>  <SCORE.INTER.VDW>
-18.5494

>  <SCORE.INTER.norm>
-0.840132

>  <SCORE.INTRA>
0

>  <SCORE.INTRA.DIHEDRAL>
0

>  <SCORE.INTRA.DIHEDRAL.0>
0

>  <SCORE.INTRA.POLAR>
0

>  <SCORE.INTRA.POLAR.0>
0

>  <SCORE.INTRA.REPUL>
0

>  <SCORE.INTRA.REPUL.0>
0

>  <SCORE.INTRA.SOLV>
0

>  <SCORE.INTRA.SOLV.lig_0>
-48.1583

>  <SCORE.INTRA.VDW>
0

>  <SCORE.INTRA.VDW.0>
0

>  <SCORE.INTRA.norm>
0

>  <SCORE.RESTR>
0

>  <SCORE.RESTR.CAVITY>
0

>  <SCORE.RESTR.norm>
0

>  <SCORE.SYSTEM>
0

>  <SCORE.SYSTEM.CONST>
0

>  <SCORE.SYSTEM.DIHEDRAL>
0

>  <SCORE.SYSTEM.SOLV>
0

>  <SCORE.SYSTEM.norm>
0

>  <SCORE.heavy>
12

>  <SCORE.norm>
-0.840132

>  <RMSD>
3.699

$$$$
ligand
 OpenBabel02271912143D
libRbt.so/2013.1/901 2013/11/27
 12 13  0  0  0  0  0  0  0  0999 V2000
    6.4708   19.0108    5.0203 C   0  0  0  0  0  0  0  0  0  0  0  0
    6.8473   17.9418    2.9831 C   0  0  0  0  0  0  0  0  0  0  0  0
    6.6688   20.0634    5.8089 N   0  0  0  0  0  0  0  0  0  0  0  0
    7.4142   17.8629    1.7742 N   0  0  0  0  0  0  0  0  0  0  0  0
    7.0547   18.9812    3.8024 N   0  0  0  0  0  0  0  0  0  0  0  0
    5.6703   18.0045    5.4365 N   0  0  0  0  0  0  0  0  0  0  0  0
    5.0066   14.7357    2.9892 N   0  0  0  0  0  0  0  0  0  0  0  0
    4.4125   14.8039    4.2588 C   0  0  0  0  0  0  0  0  0  0  0  0
    4.6525   15.9209    5.0927 N   0  0  0  0  0  0  0  0  0  0  0  0
    5.4381   16.9255    4.6480 C   0  0  0  0  0  0  0  0  0  0  0  0
    6.0282   16.8779    3.3809 C   0  0  0  0  0  0  0  0  0  0  0  0
    5.8245   15.7892    2.5351 C   0  0  0  0  0  0  0  0  0  0  0  0
  1  3  1  0  0  0  0
  1  5  1  0  0  0  0
  1  6  2  0  0  0  0
  2  5  2  0  0  0  0
  2 11  1  0  0  0  0
  2  4  1  0  0  0  0
  6 10  1  0  0  0  0
  7  8  2  0  0  0  0
  7 12  1  0  0  0  0
  8  9  1  0  0  0  0
  9 10  2  0  0  0  0
 10 11  1  0  0  0  0
 11 12  2  0  0  0  0
M  END
>  <CHROM.1>
5.96660926,17.27011946,3.99079208,0.87979790,0.92083549,0.86090393

>  <Name>
ligand

>  <RI>
0

>  <Rbt.Current_Directory>
/home/itssahil/PROJECTS/Mol_Feturizer/Test_systems_manuscript/rnas/4lx5

>  <Rbt.Executable>
rbdock ($Id: //depot/dev/client3/rdock/2013.1/src/exe/rbdock.cxx#4 $)

>  <Rbt.Library>
libRbt.so (2013.1, Build901 2013/11/27)

>  <Rbt.Parameter_File>
/export/apps/rDock/src/rDock_2013.1_src/data/scripts/dock_solv.prm

>  <Rbt.Receptor>
prm/blind_docking_40.prm

>  <SCORE>
-10.0936

>  <SCORE.INTER>
-10.0936

>  <SCORE.INTER.CONST>
1

>  <SCORE.INTER.POLAR>
0

>  <SCORE.INTER.ROT>
0

>  <SCORE.INTER.SOLV>
24.6287

>  <SCORE.INTER.VDW>
-18.5387

>  <SCORE.INTER.norm>
-0.841136

>  <SCORE.INTRA>
0

>  <SCORE.INTRA.DIHEDRAL>
0

>  <SCORE.INTRA.DIHEDRAL.0>
0

>  <SCORE.INTRA.POLAR>
0

>  <SCORE.INTRA.POLAR.0>
0

>  <SCORE.INTRA.REPUL>
0

>  <SCORE.INTRA.REPUL.0>
0

>  <SCORE.INTRA.SOLV>
0

>  <SCORE.INTRA.SOLV.lig_0>
-48.1583

>  <SCORE.INTRA.VDW>
0

>  <SCORE.INTRA.VDW.0>
0

>  <SCORE.INTRA.norm>
0

>  <SCORE.RESTR>
0

>  <SCORE.RESTR.CAVITY>
0

>  <SCORE.RESTR.norm>
0

>  <SCORE.SYSTEM>
0

>  <SCORE.SYSTEM.CONST>
0

>  <SCORE.SYSTEM.DIHEDRAL>
0

>  <SCORE.SYSTEM.SOLV>
0

>  <SCORE.SYSTEM.norm>
0

>  <SCORE.heavy>
12

>  <SCORE.norm>
-0.841136

>  <RMSD>
3.705

$$$$
ligand
 OpenBabel02271912143D
libRbt.so/2013.1/901 2013/11/27
 12 13  0  0  0  0  0  0  0  0999 V2000
    6.4657   19.0209    5.0272 C   0  0  0  0  0  0  0  0  0  0  0  0
    6.8598   17.9466    2.9961 C   0  0  0  0  0  0  0  0  0  0  0  0
    6.6560   20.0759    5.8142 N   0  0  0  0  0  0  0  0  0  0  0  0
    7.4365   17.8649    1.7920 N   0  0  0  0  0  0  0  0  0  0  0  0
    7.0594   18.9886    3.8140 N   0  0  0  0  0  0  0  0  0  0  0  0
    5.6631   18.0147    5.4397 N   0  0  0  0  0  0  0  0  0  0  0  0
    5.0232   14.7381    2.9966 N   0  0  0  0  0  0  0  0  0  0  0  0
    4.4189   14.8092    4.2612 C   0  0  0  0  0  0  0  0  0  0  0  0
    4.6508   15.9288    5.0938 N   0  0  0  0  0  0  0  0  0  0  0  0
    5.4386   16.9331    4.6525 C   0  0  0  0  0  0  0  0  0  0  0  0
    6.0390   16.8828    3.3903 C   0  0  0  0  0  0  0  0  0  0  0  0
    5.8434   15.7914    2.5460 C   0  0  0  0  0  0  0  0  0  0  0  0
  1  3  1  0  0  0  0
  1  5  1  0  0  0  0
  1  6  2  0  0  0  0
  2  5  2  0  0  0  0
  2 11  1  0  0  0  0
  2  4  1  0  0  0  0
  6 10  1  0  0  0  0
  7  8  2  0  0  0  0
  7 12  1  0  0  0  0
  8  9  1  0  0  0  0
  9 10  2  0  0  0  0
 10 11  1  0  0  0  0
 11 12  2  0  0  0  0
M  END
>  <CHROM.1>
5.97197941,17.27660281,3.99857731,0.89115962,0.91653621,0.84902410

>  <Name>
ligand

>  <RI>
0

>  <Rbt.Current_Directory>
/home/itssahil/PROJECTS/Mol_Feturizer/Test_systems_manuscript/rnas/4lx5

>  <Rbt.Executable>
rbdock ($Id: //depot/dev/client3/rdock/2013.1/src/exe/rbdock.cxx#4 $)

>  <Rbt.Library>
libRbt.so (2013.1, Build901 2013/11/27)

>  <Rbt.Parameter_File>
/export/apps/rDock/src/rDock_2013.1_src/data/scripts/dock_solv.prm

>  <Rbt.Receptor>
prm/blind_docking_40.prm

>  <SCORE>
-10.0604

>  <SCORE.INTER>
-10.0604

>  <SCORE.INTER.CONST>
1

>  <SCORE.INTER.POLAR>
0

>  <SCORE.INTER.ROT>
0

>  <SCORE.INTER.SOLV>
24.7332

>  <SCORE.INTER.VDW>
-18.5513

>  <SCORE.INTER.norm>
-0.838367

>  <SCORE.INTRA>
0

>  <SCORE.INTRA.DIHEDRAL>
0

>  <SCORE.INTRA.DIHEDRAL.0>
0

>  <SCORE.INTRA.POLAR>
0

>  <SCORE.INTRA.POLAR.0>
0

>  <SCORE.INTRA.REPUL>
0

>  <SCORE.INTRA.REPUL.0>
0

>  <SCORE.INTRA.SOLV>
0

>  <SCORE.INTRA.SOLV.lig_0>
-48.1583

>  <SCORE.INTRA.VDW>
0

>  <SCORE.INTRA.VDW.0>
0

>  <SCORE.INTRA.norm>
0

>  <SCORE.RESTR>
0

>  <SCORE.RESTR.CAVITY>
0

>  <SCORE.RESTR.norm>
0

>  <SCORE.SYSTEM>
0

>  <SCORE.SYSTEM.CONST>
0

>  <SCORE.SYSTEM.DIHEDRAL>
0

>  <SCORE.SYSTEM.SOLV>
0

>  <SCORE.SYSTEM.norm>
0

>  <SCORE.heavy>
12

>  <SCORE.norm>
-0.838367

>  <RMSD>
3.708

$$$$
ligand
 OpenBabel02271912143D
libRbt.so/2013.1/901 2013/11/27
 12 13  0  0  0  0  0  0  0  0999 V2000
    6.4709   19.0073    5.0146 C   0  0  0  0  0  0  0  0  0  0  0  0
    6.8475   17.9494    2.9716 C   0  0  0  0  0  0  0  0  0  0  0  0
    6.6643   20.0580    5.8068 N   0  0  0  0  0  0  0  0  0  0  0  0
    7.4104   17.8796    1.7603 N   0  0  0  0  0  0  0  0  0  0  0  0
    7.0504   18.9870    3.7944 N   0  0  0  0  0  0  0  0  0  0  0  0
    5.6792   17.9935    5.4296 N   0  0  0  0  0  0  0  0  0  0  0  0
    5.0301   14.7300    2.9713 N   0  0  0  0  0  0  0  0  0  0  0  0
    4.4402   14.7888    4.2434 C   0  0  0  0  0  0  0  0  0  0  0  0
    4.6753   15.9040    5.0810 N   0  0  0  0  0  0  0  0  0  0  0  0
    5.4519   16.9161    4.6375 C   0  0  0  0  0  0  0  0  0  0  0  0
    6.0377   16.8780    3.3680 C   0  0  0  0  0  0  0  0  0  0  0  0
    5.8386   15.7913    2.5185 C   0  0  0  0  0  0  0  0  0  0  0  0
  1  3  1  0  0  0  0
  1  5  1  0  0  0  0
  1  6  2  0  0  0  0
  2  5  2  0  0  0  0
  2 11  1  0  0  0  0
  2  4  1  0  0  0  0
  6 10  1  0  0  0  0
  7  8  2  0  0  0  0
  7 12  1  0  0  0  0
  8  9  1  0  0  0  0
  9 10  2  0  0  0  0
 10 11  1  0  0  0  0
 11 12  2  0  0  0  0
M  END
>  <CHROM.1>
5.97547134,17.26725425,3.97977317,0.88293355,0.92876548,0.86252730

>  <Name>
ligand

>  <RI>
0

>  <Rbt.Current_Directory>
/home/itssahil/PROJECTS/Mol_Feturizer/Test_systems_manuscript/rnas/4lx5

>  <Rbt.Executable>
rbdock ($Id: //depot/dev/client3/rdock/2013.1/src/exe/rbdock.cxx#4 $)

>  <Rbt.Library>
libRbt.so (2013.1, Build901 2013/11/27)

>  <Rbt.Parameter_File>
/export/apps/rDock/src/rDock_2013.1_src/data/scripts/dock_solv.prm

>  <Rbt.Receptor>
prm/pocket_docking_7.prm

>  <SCORE>
-10.083

>  <SCORE.INTER>
-10.083

>  <SCORE.INTER.CONST>
1

>  <SCORE.INTER.POLAR>
0

>  <SCORE.INTER.ROT>
0

>  <SCORE.INTER.SOLV>
24.6816

>  <SCORE.INTER.VDW>
-18.5492

>  <SCORE.INTER.norm>
-0.840249

>  <SCORE.INTRA>
0

>  <SCORE.INTRA.DIHEDRAL>
0

>  <SCORE.INTRA.DIHEDRAL.0>
0

>  <SCORE.INTRA.POLAR>
0

>  <SCORE.INTRA.POLAR.0>
0

>  <SCORE.INTRA.REPUL>
0

>  <SCORE.INTRA.REPUL.0>
0

>  <SCORE.INTRA.SOLV>
0

>  <SCORE.INTRA.SOLV.lig_0>
-48.1583

>  <SCORE.INTRA.VDW>
0

>  <SCORE.INTRA.VDW.0>
0

>  <SCORE.INTRA.norm>
0

>  <SCORE.RESTR>
0

>  <SCORE.RESTR.CAVITY>
0

>  <SCORE.RESTR.norm>
0

>  <SCORE.SYSTEM>
0

>  <SCORE.SYSTEM.CONST>
0

>  <SCORE.SYSTEM.DIHEDRAL>
0

>  <SCORE.SYSTEM.SOLV>
0

>  <SCORE.SYSTEM.norm>
0

>  <SCORE.heavy>
12

>  <SCORE.norm>
-0.840249

>  <RMSD>
3.708

$$$$
ligand
 OpenBabel02271912143D
libRbt.so/2013.1/901 2013/11/27
 12 13  0  0  0  0  0  0  0  0999 V2000
    6.4680   19.0014    5.0231 C   0  0  0  0  0  0  0  0  0  0  0  0
    6.8448   17.9455    2.9790 C   0  0  0  0  0  0  0  0  0  0  0  0
    6.6607   20.0516    5.8160 N   0  0  0  0  0  0  0  0  0  0  0  0
    7.4073   17.8773    1.7674 N   0  0  0  0  0  0  0  0  0  0  0  0
    7.0471   18.9826    3.8026 N   0  0  0  0  0  0  0  0  0  0  0  0
    5.6776   17.9864    5.4376 N   0  0  0  0  0  0  0  0  0  0  0  0
    5.0307   14.7243    2.9769 N   0  0  0  0  0  0  0  0  0  0  0  0
    4.4414   14.7814    4.2493 C   0  0  0  0  0  0  0  0  0  0  0  0
    4.6757   15.8962    5.0877 N   0  0  0  0  0  0  0  0  0  0  0  0
    5.4511   16.9094    4.6447 C   0  0  0  0  0  0  0  0  0  0  0  0
    6.0363   16.8730    3.3750 C   0  0  0  0  0  0  0  0  0  0  0  0
    5.8380   15.7868    2.5246 C   0  0  0  0  0  0  0  0  0  0  0  0
  1  3  1  0  0  0  0
  1  5  1  0  0  0  0
  1  6  2  0  0  0  0
  2  5  2  0  0  0  0
  2 11  1  0  0  0  0
  2  4  1  0  0  0  0
  6 10  1  0  0  0  0
  7  8  2  0  0  0  0
  7 12  1  0  0  0  0
  8  9  1  0  0  0  0
  9 10  2  0  0  0  0
 10 11  1  0  0  0  0
 11 12  2  0  0  0  0
M  END
>  <CHROM.1>
5.97396064,17.26163366,3.98703955,0.88348287,0.92982190,0.86289844

>  <Name>
ligand

>  <RI>
0

>  <Rbt.Current_Directory>
/home/itssahil/PROJECTS/Mol_Feturizer/Test_systems_manuscript/rnas/4lx5

>  <Rbt.Executable>
rbdock ($Id: //depot/dev/client3/rdock/2013.1/src/exe/rbdock.cxx#4 $)

>  <Rbt.Library>
libRbt.so (2013.1, Build901 2013/11/27)

>  <Rbt.Parameter_File>
/export/apps/rDock/src/rDock_2013.1_src/data/scripts/dock_solv.prm

>  <Rbt.Receptor>
prm/blind_docking_40.prm

>  <SCORE>
-10.0853

>  <SCORE.INTER>
-10.0853

>  <SCORE.INTER.CONST>
1

>  <SCORE.INTER.POLAR>
0

>  <SCORE.INTER.ROT>
0

>  <SCORE.INTER.SOLV>
24.6406

>  <SCORE.INTER.VDW>
-18.5371

>  <SCORE.INTER.norm>
-0.840445

>  <SCORE.INTRA>
0

>  <SCORE.INTRA.DIHEDRAL>
0

>  <SCORE.INTRA.DIHEDRAL.0>
0

>  <SCORE.INTRA.POLAR>
0

>  <SCORE.INTRA.POLAR.0>
0

>  <SCORE.INTRA.REPUL>
0

>  <SCORE.INTRA.REPUL.0>
0

>  <SCORE.INTRA.SOLV>
0

>  <SCORE.INTRA.SOLV.lig_0>
-48.1583

>  <SCORE.INTRA.VDW>
0

>  <SCORE.INTRA.VDW.0>
0

>  <SCORE.INTRA.norm>
0

>  <SCORE.RESTR>
0

>  <SCORE.RESTR.CAVITY>
0

>  <SCORE.RESTR.norm>
0

>  <SCORE.SYSTEM>
0

>  <SCORE.SYSTEM.CONST>
0

>  <SCORE.SYSTEM.DIHEDRAL>
0

>  <SCORE.SYSTEM.SOLV>
0

>  <SCORE.SYSTEM.norm>
0

>  <SCORE.heavy>
12

>  <SCORE.norm>
-0.840445

>  <RMSD>
3.710

$$$$
ligand
 OpenBabel02271912143D
libRbt.so/2013.1/901 2013/11/27
 12 13  0  0  0  0  0  0  0  0999 V2000
    6.4729   19.0036    5.0214 C   0  0  0  0  0  0  0  0  0  0  0  0
    6.8525   17.9458    2.9789 C   0  0  0  0  0  0  0  0  0  0  0  0
    6.6658   20.0539    5.8142 N   0  0  0  0  0  0  0  0  0  0  0  0
    7.4178   17.8756    1.7687 N   0  0  0  0  0  0  0  0  0  0  0  0
    7.0549   18.9829    3.8024 N   0  0  0  0  0  0  0  0  0  0  0  0
    5.6794   17.9905    5.4346 N   0  0  0  0  0  0  0  0  0  0  0  0
    5.0318   14.7282    2.9743 N   0  0  0  0  0  0  0  0  0  0  0  0
    4.4395   14.7873    4.2452 C   0  0  0  0  0  0  0  0  0  0  0  0
    4.6741   15.9021    5.0835 N   0  0  0  0  0  0  0  0  0  0  0  0
    5.4526   16.9134    4.6418 C   0  0  0  0  0  0  0  0  0  0  0  0
    6.0408   16.8751    3.3735 C   0  0  0  0  0  0  0  0  0  0  0  0
    5.8424   15.7888    2.5233 C   0  0  0  0  0  0  0  0  0  0  0  0
  1  3  1  0  0  0  0
  1  5  1  0  0  0  0
  1  6  2  0  0  0  0
  2  5  2  0  0  0  0
  2 11  1  0  0  0  0
  2  4  1  0  0  0  0
  6 10  1  0  0  0  0
  7  8  2  0  0  0  0
  7 12  1  0  0  0  0
  8  9  1  0  0  0  0
  9 10  2  0  0  0  0
 10 11  1  0  0  0  0
 11 12  2  0  0  0  0
M  END
>  <CHROM.1>
5.97780344,17.26423597,3.98520139,0.88435782,0.92668505,0.86160178

>  <Name>
ligand

>  <RI>
0

>  <Rbt.Current_Directory>
/home/itssahil/PROJECTS/Mol_Feturizer/Test_systems_manuscript/rnas/4lx5

>  <Rbt.Executable>
rbdock ($Id: //depot/dev/client3/rdock/2013.1/src/exe/rbdock.cxx#4 $)

>  <Rbt.Library>
libRbt.so (2013.1, Build901 2013/11/27)

>  <Rbt.Parameter_File>
/export/apps/rDock/src/rDock_2013.1_src/data/scripts/dock_solv.prm

>  <Rbt.Receptor>
prm/blind_docking_80.prm

>  <SCORE>
-10.085

>  <SCORE.INTER>
-10.085

>  <SCORE.INTER.CONST>
1

>  <SCORE.INTER.POLAR>
0

>  <SCORE.INTER.ROT>
0

>  <SCORE.INTER.SOLV>
24.6549

>  <SCORE.INTER.VDW>
-18.5416

>  <SCORE.INTER.norm>
-0.840416

>  <SCORE.INTRA>
0

>  <SCORE.INTRA.DIHEDRAL>
0

>  <SCORE.INTRA.DIHEDRAL.0>
0

>  <SCORE.INTRA.POLAR>
0

>  <SCORE.INTRA.POLAR.0>
0

>  <SCORE.INTRA.REPUL>
0

>  <SCORE.INTRA.REPUL.0>
0

>  <SCORE.INTRA.SOLV>
0

>  <SCORE.INTRA.SOLV.lig_0>
-48.1583

>  <SCORE.INTRA.VDW>
0

>  <SCORE.INTRA.VDW.0>
0

>  <SCORE.INTRA.norm>
0

>  <SCORE.RESTR>
0

>  <SCORE.RESTR.CAVITY>
0

>  <SCORE.RESTR.norm>
0

>  <SCORE.SYSTEM>
0

>  <SCORE.SYSTEM.CONST>
0

>  <SCORE.SYSTEM.DIHEDRAL>
0

>  <SCORE.SYSTEM.SOLV>
0

>  <SCORE.SYSTEM.norm>
0

>  <SCORE.heavy>
12

>  <SCORE.norm>
-0.840416

>  <RMSD>
3.710

$$$$
ligand
 OpenBabel02271912143D
libRbt.so/2013.1/901 2013/11/27
 12 13  0  0  0  0  0  0  0  0999 V2000
    6.4694   19.0047    5.0211 C   0  0  0  0  0  0  0  0  0  0  0  0
    6.8501   17.9467    2.9789 C   0  0  0  0  0  0  0  0  0  0  0  0
    6.6607   20.0557    5.8133 N   0  0  0  0  0  0  0  0  0  0  0  0
    7.4149   17.8771    1.7685 N   0  0  0  0  0  0  0  0  0  0  0  0
    7.0509   18.9846    3.8018 N   0  0  0  0  0  0  0  0  0  0  0  0
    5.6780   17.9902    5.4350 N   0  0  0  0  0  0  0  0  0  0  0  0
    5.0355   14.7257    2.9764 N   0  0  0  0  0  0  0  0  0  0  0  0
    4.4436   14.7842    4.2475 C   0  0  0  0  0  0  0  0  0  0  0  0
    4.6765   15.8998    5.0853 N   0  0  0  0  0  0  0  0  0  0  0  0
    5.4529   16.9125    4.6428 C   0  0  0  0  0  0  0  0  0  0  0  0
    6.0406   16.8747    3.3743 C   0  0  0  0  0  0  0  0  0  0  0  0
    5.8438   15.7876    2.5246 C   0  0  0  0  0  0  0  0  0  0  0  0
  1  3  1  0  0  0  0
  1  5  1  0  0  0  0
  1  6  2  0  0  0  0
  2  5  2  0  0  0  0
  2 11  1  0  0  0  0
  2  4  1  0  0  0  0
  6 10  1  0  0  0  0
  7  8  2  0  0  0  0
  7 12  1  0  0  0  0
  8  9  1  0  0  0  0
  9 10  2  0  0  0  0
 10 11  1  0  0  0  0
 11 12  2  0  0  0  0
M  END
>  <CHROM.1>
5.97711982,17.26395803,3.98584057,0.88582792,0.92841365,0.86001182

>  <Name>
ligand

>  <RI>
0

>  <Rbt.Current_Directory>
/home/itssahil/PROJECTS/Mol_Feturizer/Test_systems_manuscript/rnas/4lx5

>  <Rbt.Executable>
rbdock ($Id: //depot/dev/client3/rdock/2013.1/src/exe/rbdock.cxx#4 $)

>  <Rbt.Library>
libRbt.so (2013.1, Build901 2013/11/27)

>  <Rbt.Parameter_File>
/export/apps/rDock/src/rDock_2013.1_src/data/scripts/dock_solv.prm

>  <Rbt.Receptor>
prm/blind_docking_80.prm

>  <SCORE>
-10.0853

>  <SCORE.INTER>
-10.0853

>  <SCORE.INTER.CONST>
1

>  <SCORE.INTER.POLAR>
0

>  <SCORE.INTER.ROT>
0

>  <SCORE.INTER.SOLV>
24.6729

>  <SCORE.INTER.VDW>
-18.5478

>  <SCORE.INTER.norm>
-0.840443

>  <SCORE.INTRA>
0

>  <SCORE.INTRA.DIHEDRAL>
0

>  <SCORE.INTRA.DIHEDRAL.0>
0

>  <SCORE.INTRA.POLAR>
0

>  <SCORE.INTRA.POLAR.0>
0

>  <SCORE.INTRA.REPUL>
0

>  <SCORE.INTRA.REPUL.0>
0

>  <SCORE.INTRA.SOLV>
0

>  <SCORE.INTRA.SOLV.lig_0>
-48.1583

>  <SCORE.INTRA.VDW>
0

>  <SCORE.INTRA.VDW.0>
0

>  <SCORE.INTRA.norm>
0

>  <SCORE.RESTR>
0

>  <SCORE.RESTR.CAVITY>
0

>  <SCORE.RESTR.norm>
0

>  <SCORE.SYSTEM>
0

>  <SCORE.SYSTEM.CONST>
0

>  <SCORE.SYSTEM.DIHEDRAL>
0

>  <SCORE.SYSTEM.SOLV>
0

>  <SCORE.SYSTEM.norm>
0

>  <SCORE.heavy>
12

>  <SCORE.norm>
-0.840443

>  <RMSD>
3.710

$$$$
ligand
 OpenBabel02271912143D
libRbt.so/2013.1/901 2013/11/27
 12 13  0  0  0  0  0  0  0  0999 V2000
    6.4765   19.0228    5.0314 C   0  0  0  0  0  0  0  0  0  0  0  0
    6.8640   17.9575    2.9943 C   0  0  0  0  0  0  0  0  0  0  0  0
    6.6745   20.0716    5.8249 N   0  0  0  0  0  0  0  0  0  0  0  0
    7.4412   17.8784    1.7903 N   0  0  0  0  0  0  0  0  0  0  0  0
    7.0711   18.9930    3.8187 N   0  0  0  0  0  0  0  0  0  0  0  0
    5.6654   18.0207    5.4371 N   0  0  0  0  0  0  0  0  0  0  0  0
    5.0016   14.7640    2.9738 N   0  0  0  0  0  0  0  0  0  0  0  0
    4.3966   14.8324    4.2382 C   0  0  0  0  0  0  0  0  0  0  0  0
    4.6367   15.9451    5.0777 N   0  0  0  0  0  0  0  0  0  0  0  0
    5.4330   16.9457    4.6433 C   0  0  0  0  0  0  0  0  0  0  0  0
    6.0342   16.8980    3.3814 C   0  0  0  0  0  0  0  0  0  0  0  0
    5.8307   15.8133    2.5303 C   0  0  0  0  0  0  0  0  0  0  0  0
  1  3  1  0  0  0  0
  1  5  1  0  0  0  0
  1  6  2  0  0  0  0
  2  5  2  0  0  0  0
  2 11  1  0  0  0  0
  2  4  1  0  0  0  0
  6 10  1  0  0  0  0
  7  8  2  0  0  0  0
  7 12  1  0  0  0  0
  8  9  1  0  0  0  0
  9 10  2  0  0  0  0
 10 11  1  0  0  0  0
 11 12  2  0  0  0  0
M  END
>  <CHROM.1>
5.96978410,17.28873647,3.99189979,0.88371844,0.90982095,0.86089482

>  <Name>
ligand

>  <RI>
0

>  <Rbt.Current_Directory>
/home/itssahil/PROJECTS/Mol_Feturizer/Test_systems_manuscript/rnas/4lx5

>  <Rbt.Executable>
rbdock ($Id: //depot/dev/client3/rdock/2013.1/src/exe/rbdock.cxx#4 $)

>  <Rbt.Library>
libRbt.so (2013.1, Build901 2013/11/27)

>  <Rbt.Parameter_File>
/export/apps/rDock/src/rDock_2013.1_src/data/scripts/dock_solv.prm

>  <Rbt.Receptor>
prm/pocket_docking_8.prm

>  <SCORE>
-10.0673

>  <SCORE.INTER>
-10.0673

>  <SCORE.INTER.CONST>
1

>  <SCORE.INTER.POLAR>
0

>  <SCORE.INTER.ROT>
0

>  <SCORE.INTER.SOLV>
24.7046

>  <SCORE.INTER.VDW>
-18.5464

>  <SCORE.INTER.norm>
-0.838946

>  <SCORE.INTRA>
0

>  <SCORE.INTRA.DIHEDRAL>
0

>  <SCORE.INTRA.DIHEDRAL.0>
0

>  <SCORE.INTRA.POLAR>
0

>  <SCORE.INTRA.POLAR.0>
0

>  <SCORE.INTRA.REPUL>
0

>  <SCORE.INTRA.REPUL.0>
0

>  <SCORE.INTRA.SOLV>
0

>  <SCORE.INTRA.SOLV.lig_0>
-48.1583

>  <SCORE.INTRA.VDW>
0

>  <SCORE.INTRA.VDW.0>
0

>  <SCORE.INTRA.norm>
0

>  <SCORE.RESTR>
0

>  <SCORE.RESTR.CAVITY>
0

>  <SCORE.RESTR.norm>
0

>  <SCORE.SYSTEM>
0

>  <SCORE.SYSTEM.CONST>
0

>  <SCORE.SYSTEM.DIHEDRAL>
0

>  <SCORE.SYSTEM.SOLV>
0

>  <SCORE.SYSTEM.norm>
0

>  <SCORE.heavy>
12

>  <SCORE.norm>
-0.838946

>  <RMSD>
3.711

$$$$
ligand
 OpenBabel02271912143D
libRbt.so/2013.1/901 2013/11/27
 12 13  0  0  0  0  0  0  0  0999 V2000
    6.4616   19.0110    5.0426 C   0  0  0  0  0  0  0  0  0  0  0  0
    6.8234   17.9622    2.9922 C   0  0  0  0  0  0  0  0  0  0  0  0
    6.6597   20.0587    5.8375 N   0  0  0  0  0  0  0  0  0  0  0  0
    7.3766   17.8984    1.7761 N   0  0  0  0  0  0  0  0  0  0  0  0
    7.0313   18.9967    3.8177 N   0  0  0  0  0  0  0  0  0  0  0  0
    5.6750   17.9942    5.4597 N   0  0  0  0  0  0  0  0  0  0  0  0
    5.0112   14.7398    2.9932 N   0  0  0  0  0  0  0  0  0  0  0  0
    4.4316   14.7923    4.2702 C   0  0  0  0  0  0  0  0  0  0  0  0
    4.6717   15.9045    5.1106 N   0  0  0  0  0  0  0  0  0  0  0  0
    5.4430   16.9196    4.6651 C   0  0  0  0  0  0  0  0  0  0  0  0
    6.0185   16.8878    3.3907 C   0  0  0  0  0  0  0  0  0  0  0  0
    5.8144   15.8043    2.5383 C   0  0  0  0  0  0  0  0  0  0  0  0
  1  3  1  0  0  0  0
  1  5  1  0  0  0  0
  1  6  2  0  0  0  0
  2  5  2  0  0  0  0
  2 11  1  0  0  0  0
  2  4  1  0  0  0  0
  6 10  1  0  0  0  0
  7  8  2  0  0  0  0
  7 12  1  0  0  0  0
  8  9  1  0  0  0  0
  9 10  2  0  0  0  0
 10 11  1  0  0  0  0
 11 12  2  0  0  0  0
M  END
>  <CHROM.1>
5.96065826,17.27441484,4.00456596,0.87436750,0.93524277,0.87355617

>  <Name>
ligand

>  <RI>
0

>  <Rbt.Current_Directory>
/home/itssahil/PROJECTS/Mol_Feturizer/Test_systems_manuscript/rnas/4lx5

>  <Rbt.Executable>
rbdock ($Id: //depot/dev/client3/rdock/2013.1/src/exe/rbdock.cxx#4 $)

>  <Rbt.Library>
libRbt.so (2013.1, Build901 2013/11/27)

>  <Rbt.Parameter_File>
/export/apps/rDock/src/rDock_2013.1_src/data/scripts/dock_solv.prm

>  <Rbt.Receptor>
prm/blind_docking_80.prm

>  <SCORE>
-10.0498

>  <SCORE.INTER>
-10.0498

>  <SCORE.INTER.CONST>
1

>  <SCORE.INTER.POLAR>
0

>  <SCORE.INTER.ROT>
0

>  <SCORE.INTER.SOLV>
24.6235

>  <SCORE.INTER.VDW>
-18.5077

>  <SCORE.INTER.norm>
-0.837486

>  <SCORE.INTRA>
0

>  <SCORE.INTRA.DIHEDRAL>
0

>  <SCORE.INTRA.DIHEDRAL.0>
0

>  <SCORE.INTRA.POLAR>
0

>  <SCORE.INTRA.POLAR.0>
0

>  <SCORE.INTRA.REPUL>
0

>  <SCORE.INTRA.REPUL.0>
0

>  <SCORE.INTRA.SOLV>
0

>  <SCORE.INTRA.SOLV.lig_0>
-48.1583

>  <SCORE.INTRA.VDW>
0

>  <SCORE.INTRA.VDW.0>
0

>  <SCORE.INTRA.norm>
0

>  <SCORE.RESTR>
0

>  <SCORE.RESTR.CAVITY>
0

>  <SCORE.RESTR.norm>
0

>  <SCORE.SYSTEM>
0

>  <SCORE.SYSTEM.CONST>
0

>  <SCORE.SYSTEM.DIHEDRAL>
0

>  <SCORE.SYSTEM.SOLV>
0

>  <SCORE.SYSTEM.norm>
0

>  <SCORE.heavy>
12

>  <SCORE.norm>
-0.837486

>  <RMSD>
3.712

$$$$
ligand
 OpenBabel02271912143D
libRbt.so/2013.1/901 2013/11/27
 12 13  0  0  0  0  0  0  0  0999 V2000
    4.5160   15.3294    4.2637 C   0  0  0  0  0  0  0  0  0  0  0  0
    5.6840   17.2712    4.8114 C   0  0  0  0  0  0  0  0  0  0  0  0
    3.7313   14.3255    4.6450 N   0  0  0  0  0  0  0  0  0  0  0  0
    6.1130   18.1883    5.6854 N   0  0  0  0  0  0  0  0  0  0  0  0
    4.9143   16.2386    5.1801 N   0  0  0  0  0  0  0  0  0  0  0  0
    4.8788   15.4393    2.9664 N   0  0  0  0  0  0  0  0  0  0  0  0
    7.2883   18.5727    1.7454 N   0  0  0  0  0  0  0  0  0  0  0  0
    6.8505   17.6121    0.8207 C   0  0  0  0  0  0  0  0  0  0  0  0
    6.0347   16.5388    1.2488 N   0  0  0  0  0  0  0  0  0  0  0  0
    5.6660   16.4606    2.5457 C   0  0  0  0  0  0  0  0  0  0  0  0
    6.0844   17.4162    3.4774 C   0  0  0  0  0  0  0  0  0  0  0  0
    6.8978   18.4817    3.0961 C   0  0  0  0  0  0  0  0  0  0  0  0
  1  3  1  0  0  0  0
  1  5  1  0  0  0  0
  1  6  2  0  0  0  0
  2  5  2  0  0  0  0
  2 11  1  0  0  0  0
  2  4  1  0  0  0  0
  6 10  1  0  0  0  0
  7  8  2  0  0  0  0
  7 12  1  0  0  0  0
  8  9  1  0  0  0  0
  9 10  2  0  0  0  0
 10 11  1  0  0  0  0
 11 12  2  0  0  0  0
M  END
>  <CHROM.1>
5.70408786,16.80197403,3.38955690,2.68914565,0.95034193,1.23856541

>  <Name>
ligand

>  <RI>
0

>  <Rbt.Current_Directory>
/home/itssahil/PROJECTS/Mol_Feturizer/Test_systems_manuscript/rnas/4lx5

>  <Rbt.Executable>
rbdock ($Id: //depot/dev/client3/rdock/2013.1/src/exe/rbdock.cxx#4 $)

>  <Rbt.Library>
libRbt.so (2013.1, Build901 2013/11/27)

>  <Rbt.Parameter_File>
/export/apps/rDock/src/rDock_2013.1_src/data/scripts/dock_solv.prm

>  <Rbt.Receptor>
prm/blind_docking_40.prm

>  <SCORE>
-12.126

>  <SCORE.INTER>
-12.126

>  <SCORE.INTER.CONST>
1

>  <SCORE.INTER.POLAR>
0

>  <SCORE.INTER.ROT>
0

>  <SCORE.INTER.SOLV>
17.3757

>  <SCORE.INTER.VDW>
-17.4759

>  <SCORE.INTER.norm>
-1.0105

>  <SCORE.INTRA>
0

>  <SCORE.INTRA.DIHEDRAL>
0

>  <SCORE.INTRA.DIHEDRAL.0>
0

>  <SCORE.INTRA.POLAR>
0

>  <SCORE.INTRA.POLAR.0>
0

>  <SCORE.INTRA.REPUL>
0

>  <SCORE.INTRA.REPUL.0>
0

>  <SCORE.INTRA.SOLV>
0

>  <SCORE.INTRA.SOLV.lig_0>
-48.1583

>  <SCORE.INTRA.VDW>
0

>  <SCORE.INTRA.VDW.0>
0

>  <SCORE.INTRA.norm>
0

>  <SCORE.RESTR>
0

>  <SCORE.RESTR.CAVITY>
0

>  <SCORE.RESTR.norm>
0

>  <SCORE.SYSTEM>
0

>  <SCORE.SYSTEM.CONST>
0

>  <SCORE.SYSTEM.DIHEDRAL>
0

>  <SCORE.SYSTEM.SOLV>
0

>  <SCORE.SYSTEM.norm>
0

>  <SCORE.heavy>
12

>  <SCORE.norm>
-1.0105

>  <RMSD>
4.083

$$$$
ligand
 OpenBabel02271912143D
libRbt.so/2013.1/901 2013/11/27
 12 13  0  0  0  0  0  0  0  0999 V2000
    4.5133   15.3176    4.2625 C   0  0  0  0  0  0  0  0  0  0  0  0
    5.6654   17.2693    4.8085 C   0  0  0  0  0  0  0  0  0  0  0  0
    3.7361   14.3082    4.6444 N   0  0  0  0  0  0  0  0  0  0  0  0
    6.0862   18.1911    5.6817 N   0  0  0  0  0  0  0  0  0  0  0  0
    4.9034   16.2313    5.1780 N   0  0  0  0  0  0  0  0  0  0  0  0
    4.8768   15.4283    2.9655 N   0  0  0  0  0  0  0  0  0  0  0  0
    7.2631   18.5786    1.7425 N   0  0  0  0  0  0  0  0  0  0  0  0
    6.8340   17.6132    0.8188 C   0  0  0  0  0  0  0  0  0  0  0  0
    6.0261   16.5342    1.2475 N   0  0  0  0  0  0  0  0  0  0  0  0
    5.6565   16.4551    2.5441 C   0  0  0  0  0  0  0  0  0  0  0  0
    6.0663   17.4153    3.4748 C   0  0  0  0  0  0  0  0  0  0  0  0
    6.8718   18.4866    3.0929 C   0  0  0  0  0  0  0  0  0  0  0  0
  1  3  1  0  0  0  0
  1  5  1  0  0  0  0
  1  6  2  0  0  0  0
  2  5  2  0  0  0  0
  2 11  1  0  0  0  0
  2  4  1  0  0  0  0
  6 10  1  0  0  0  0
  7  8  2  0  0  0  0
  7 12  1  0  0  0  0
  8  9  1  0  0  0  0
  9 10  2  0  0  0  0
 10 11  1  0  0  0  0
 11 12  2  0  0  0  0
M  END
>  <CHROM.1>
5.69088334,16.79806755,3.38747577,2.69554845,0.95733985,1.23180338

>  <Name>
ligand

>  <RI>
0

>  <Rbt.Current_Directory>
/home/itssahil/PROJECTS/Mol_Feturizer/Test_systems_manuscript/rnas/4lx5

>  <Rbt.Executable>
rbdock ($Id: //depot/dev/client3/rdock/2013.1/src/exe/rbdock.cxx#4 $)

>  <Rbt.Library>
libRbt.so (2013.1, Build901 2013/11/27)

>  <Rbt.Parameter_File>
/export/apps/rDock/src/rDock_2013.1_src/data/scripts/dock_solv.prm

>  <Rbt.Receptor>
prm/pocket_docking_8.prm

>  <SCORE>
-12.1415

>  <SCORE.INTER>
-12.1415

>  <SCORE.INTER.CONST>
1

>  <SCORE.INTER.POLAR>
0

>  <SCORE.INTER.ROT>
0

>  <SCORE.INTER.SOLV>
17.4895

>  <SCORE.INTER.VDW>
-17.5242

>  <SCORE.INTER.norm>
-1.01179

>  <SCORE.INTRA>
0

>  <SCORE.INTRA.DIHEDRAL>
0

>  <SCORE.INTRA.DIHEDRAL.0>
0

>  <SCORE.INTRA.POLAR>
0

>  <SCORE.INTRA.POLAR.0>
0

>  <SCORE.INTRA.REPUL>
0

>  <SCORE.INTRA.REPUL.0>
0

>  <SCORE.INTRA.SOLV>
0

>  <SCORE.INTRA.SOLV.lig_0>
-48.1583

>  <SCORE.INTRA.VDW>
0

>  <SCORE.INTRA.VDW.0>
0

>  <SCORE.INTRA.norm>
0

>  <SCORE.RESTR>
0

>  <SCORE.RESTR.CAVITY>
0

>  <SCORE.RESTR.norm>
0

>  <SCORE.SYSTEM>
0

>  <SCORE.SYSTEM.CONST>
0

>  <SCORE.SYSTEM.DIHEDRAL>
0

>  <SCORE.SYSTEM.SOLV>
0

>  <SCORE.SYSTEM.norm>
0

>  <SCORE.heavy>
12

>  <SCORE.norm>
-1.01179

>  <RMSD>
4.083

$$$$
ligand
 OpenBabel02271912143D
libRbt.so/2013.1/901 2013/11/27
 12 13  0  0  0  0  0  0  0  0999 V2000
    4.5209   15.3218    4.2657 C   0  0  0  0  0  0  0  0  0  0  0  0
    5.6826   17.2694    4.8064 C   0  0  0  0  0  0  0  0  0  0  0  0
    3.7434   14.3141    4.6516 N   0  0  0  0  0  0  0  0  0  0  0  0
    6.1122   18.1886    5.6778 N   0  0  0  0  0  0  0  0  0  0  0  0
    4.9201   16.2330    5.1797 N   0  0  0  0  0  0  0  0  0  0  0  0
    4.8755   15.4334    2.9662 N   0  0  0  0  0  0  0  0  0  0  0  0
    7.2624   18.5785    1.7310 N   0  0  0  0  0  0  0  0  0  0  0  0
    6.8238   17.6157    0.8089 C   0  0  0  0  0  0  0  0  0  0  0  0
    6.0159   16.5384    1.2418 N   0  0  0  0  0  0  0  0  0  0  0  0
    5.6552   16.4585    2.5409 C   0  0  0  0  0  0  0  0  0  0  0  0
    6.0744   17.4162    3.4700 C   0  0  0  0  0  0  0  0  0  0  0  0
    6.8803   18.4856    3.0840 C   0  0  0  0  0  0  0  0  0  0  0  0
  1  3  1  0  0  0  0
  1  5  1  0  0  0  0
  1  6  2  0  0  0  0
  2  5  2  0  0  0  0
  2 11  1  0  0  0  0
  2  4  1  0  0  0  0
  6 10  1  0  0  0  0
  7  8  2  0  0  0  0
  7 12  1  0  0  0  0
  8  9  1  0  0  0  0
  9 10  2  0  0  0  0
 10 11  1  0  0  0  0
 11 12  2  0  0  0  0
M  END
>  <CHROM.1>
5.69658030,16.80013458,3.38446556,2.68226354,0.95688520,1.24412484

>  <Name>
ligand

>  <RI>
0

>  <Rbt.Current_Directory>
/home/itssahil/PROJECTS/Mol_Feturizer/Test_systems_manuscript/rnas/4lx5

>  <Rbt.Executable>
rbdock ($Id: //depot/dev/client3/rdock/2013.1/src/exe/rbdock.cxx#4 $)

>  <Rbt.Library>
libRbt.so (2013.1, Build901 2013/11/27)

>  <Rbt.Parameter_File>
/export/apps/rDock/src/rDock_2013.1_src/data/scripts/dock_solv.prm

>  <Rbt.Receptor>
prm/blind_docking_40.prm

>  <SCORE>
-12.1567

>  <SCORE.INTER>
-12.1567

>  <SCORE.INTER.CONST>
1

>  <SCORE.INTER.POLAR>
0

>  <SCORE.INTER.ROT>
0

>  <SCORE.INTER.SOLV>
17.4205

>  <SCORE.INTER.VDW>
-17.5113

>  <SCORE.INTER.norm>
-1.01306

>  <SCORE.INTRA>
0

>  <SCORE.INTRA.DIHEDRAL>
0

>  <SCORE.INTRA.DIHEDRAL.0>
0

>  <SCORE.INTRA.POLAR>
0

>  <SCORE.INTRA.POLAR.0>
0

>  <SCORE.INTRA.REPUL>
0

>  <SCORE.INTRA.REPUL.0>
0

>  <SCORE.INTRA.SOLV>
0

>  <SCORE.INTRA.SOLV.lig_0>
-48.1583

>  <SCORE.INTRA.VDW>
0

>  <SCORE.INTRA.VDW.0>
0

>  <SCORE.INTRA.norm>
0

>  <SCORE.RESTR>
0

>  <SCORE.RESTR.CAVITY>
0

>  <SCORE.RESTR.norm>
0

>  <SCORE.SYSTEM>
0

>  <SCORE.SYSTEM.CONST>
0

>  <SCORE.SYSTEM.DIHEDRAL>
0

>  <SCORE.SYSTEM.SOLV>
0

>  <SCORE.SYSTEM.norm>
0

>  <SCORE.heavy>
12

>  <SCORE.norm>
-1.01306

>  <RMSD>
4.086

$$$$
ligand
 OpenBabel02271912143D
libRbt.so/2013.1/901 2013/11/27
 12 13  0  0  0  0  0  0  0  0999 V2000
    4.5096   15.3259    4.2664 C   0  0  0  0  0  0  0  0  0  0  0  0
    5.6745   17.2711    4.8086 C   0  0  0  0  0  0  0  0  0  0  0  0
    3.7272   14.3214    4.6508 N   0  0  0  0  0  0  0  0  0  0  0  0
    6.1028   18.1909    5.6802 N   0  0  0  0  0  0  0  0  0  0  0  0
    4.9072   16.2378    5.1805 N   0  0  0  0  0  0  0  0  0  0  0  0
    4.8707   15.4337    2.9685 N   0  0  0  0  0  0  0  0  0  0  0  0
    7.2730   18.5690    1.7381 N   0  0  0  0  0  0  0  0  0  0  0  0
    6.8360   17.6056    0.8160 C   0  0  0  0  0  0  0  0  0  0  0  0
    6.0227   16.5317    1.2473 N   0  0  0  0  0  0  0  0  0  0  0  0
    5.6556   16.4556    2.5447 C   0  0  0  0  0  0  0  0  0  0  0  0
    6.0732   17.4139    3.4739 C   0  0  0  0  0  0  0  0  0  0  0  0
    6.8842   18.4801    3.0895 C   0  0  0  0  0  0  0  0  0  0  0  0
  1  3  1  0  0  0  0
  1  5  1  0  0  0  0
  1  6  2  0  0  0  0
  2  5  2  0  0  0  0
  2 11  1  0  0  0  0
  2  4  1  0  0  0  0
  6 10  1  0  0  0  0
  7  8  2  0  0  0  0
  7 12  1  0  0  0  0
  8  9  1  0  0  0  0
  9 10  2  0  0  0  0
 10 11  1  0  0  0  0
 11 12  2  0  0  0  0
M  END
>  <CHROM.1>
5.69394072,16.79882017,3.38779838,2.68841919,0.95248491,1.23700373

>  <Name>
ligand

>  <RI>
0

>  <Rbt.Current_Directory>
/home/itssahil/PROJECTS/Mol_Feturizer/Test_systems_manuscript/rnas/4lx5

>  <Rbt.Executable>
rbdock ($Id: //depot/dev/client3/rdock/2013.1/src/exe/rbdock.cxx#4 $)

>  <Rbt.Library>
libRbt.so (2013.1, Build901 2013/11/27)

>  <Rbt.Parameter_File>
/export/apps/rDock/src/rDock_2013.1_src/data/scripts/dock_solv.prm

>  <Rbt.Receptor>
prm/blind_docking_40.prm

>  <SCORE>
-12.1434

>  <SCORE.INTER>
-12.1434

>  <SCORE.INTER.CONST>
1

>  <SCORE.INTER.POLAR>
0

>  <SCORE.INTER.ROT>
0

>  <SCORE.INTER.SOLV>
17.402

>  <SCORE.INTER.VDW>
-17.4963

>  <SCORE.INTER.norm>
-1.01195

>  <SCORE.INTRA>
0

>  <SCORE.INTRA.DIHEDRAL>
0

>  <SCORE.INTRA.DIHEDRAL.0>
0

>  <SCORE.INTRA.POLAR>
0

>  <SCORE.INTRA.POLAR.0>
0

>  <SCORE.INTRA.REPUL>
0

>  <SCORE.INTRA.REPUL.0>
0

>  <SCORE.INTRA.SOLV>
0

>  <SCORE.INTRA.SOLV.lig_0>
-48.1583

>  <SCORE.INTRA.VDW>
0

>  <SCORE.INTRA.VDW.0>
0

>  <SCORE.INTRA.norm>
0

>  <SCORE.RESTR>
0

>  <SCORE.RESTR.CAVITY>
0

>  <SCORE.RESTR.norm>
0

>  <SCORE.SYSTEM>
0

>  <SCORE.SYSTEM.CONST>
0

>  <SCORE.SYSTEM.DIHEDRAL>
0

>  <SCORE.SYSTEM.SOLV>
0

>  <SCORE.SYSTEM.norm>
0

>  <SCORE.heavy>
12

>  <SCORE.norm>
-1.01195

>  <RMSD>
4.086

$$$$
ligand
 OpenBabel02271912143D
libRbt.so/2013.1/901 2013/11/27
 12 13  0  0  0  0  0  0  0  0999 V2000
    4.5060   15.3243    4.2659 C   0  0  0  0  0  0  0  0  0  0  0  0
    5.6696   17.2698    4.8100 C   0  0  0  0  0  0  0  0  0  0  0  0
    3.7229   14.3198    4.6489 N   0  0  0  0  0  0  0  0  0  0  0  0
    6.0958   18.1899    5.6822 N   0  0  0  0  0  0  0  0  0  0  0  0
    4.9015   16.2366    5.1805 N   0  0  0  0  0  0  0  0  0  0  0  0
    4.8699   15.4318    2.9687 N   0  0  0  0  0  0  0  0  0  0  0  0
    7.2744   18.5670    1.7426 N   0  0  0  0  0  0  0  0  0  0  0  0
    6.8395   17.6032    0.8198 C   0  0  0  0  0  0  0  0  0  0  0  0
    6.0254   16.5293    1.2496 N   0  0  0  0  0  0  0  0  0  0  0  0
    5.6555   16.4536    2.5463 C   0  0  0  0  0  0  0  0  0  0  0  0
    6.0711   17.4123    3.4761 C   0  0  0  0  0  0  0  0  0  0  0  0
    6.8827   18.4784    3.0931 C   0  0  0  0  0  0  0  0  0  0  0  0
  1  3  1  0  0  0  0
  1  5  1  0  0  0  0
  1  6  2  0  0  0  0
  2  5  2  0  0  0  0
  2 11  1  0  0  0  0
  2  4  1  0  0  0  0
  6 10  1  0  0  0  0
  7  8  2  0  0  0  0
  7 12  1  0  0  0  0
  8  9  1  0  0  0  0
  9 10  2  0  0  0  0
 10 11  1  0  0  0  0
 11 12  2  0  0  0  0
M  END
>  <CHROM.1>
5.69203900,16.79710192,3.38939183,2.69194899,0.95187557,1.23382707

>  <Name>
ligand

>  <RI>
0

>  <Rbt.Current_Directory>
/home/itssahil/PROJECTS/Mol_Feturizer/Test_systems_manuscript/rnas/4lx5

>  <Rbt.Executable>
rbdock ($Id: //depot/dev/client3/rdock/2013.1/src/exe/rbdock.cxx#4 $)

>  <Rbt.Library>
libRbt.so (2013.1, Build901 2013/11/27)

>  <Rbt.Parameter_File>
/export/apps/rDock/src/rDock_2013.1_src/data/scripts/dock_solv.prm

>  <Rbt.Receptor>
prm/blind_docking_80.prm

>  <SCORE>
-12.1404

>  <SCORE.INTER>
-12.1404

>  <SCORE.INTER.CONST>
1

>  <SCORE.INTER.POLAR>
0

>  <SCORE.INTER.ROT>
0

>  <SCORE.INTER.SOLV>
17.4133

>  <SCORE.INTER.VDW>
-17.498

>  <SCORE.INTER.norm>
-1.0117

>  <SCORE.INTRA>
0

>  <SCORE.INTRA.DIHEDRAL>
0

>  <SCORE.INTRA.DIHEDRAL.0>
0

>  <SCORE.INTRA.POLAR>
0

>  <SCORE.INTRA.POLAR.0>
0

>  <SCORE.INTRA.REPUL>
0

>  <SCORE.INTRA.REPUL.0>
0

>  <SCORE.INTRA.SOLV>
0

>  <SCORE.INTRA.SOLV.lig_0>
-48.1583

>  <SCORE.INTRA.VDW>
0

>  <SCORE.INTRA.VDW.0>
0

>  <SCORE.INTRA.norm>
0

>  <SCORE.RESTR>
0

>  <SCORE.RESTR.CAVITY>
0

>  <SCORE.RESTR.norm>
0

>  <SCORE.SYSTEM>
0

>  <SCORE.SYSTEM.CONST>
0

>  <SCORE.SYSTEM.DIHEDRAL>
0

>  <SCORE.SYSTEM.SOLV>
0

>  <SCORE.SYSTEM.norm>
0

>  <SCORE.heavy>
12

>  <SCORE.norm>
-1.0117

>  <RMSD>
4.086

$$$$
ligand
 OpenBabel02271912143D
libRbt.so/2013.1/901 2013/11/27
 12 13  0  0  0  0  0  0  0  0999 V2000
    4.3355   15.4598    4.0954 C   0  0  0  0  0  0  0  0  0  0  0  0
    5.6853   17.2697    4.6760 C   0  0  0  0  0  0  0  0  0  0  0  0
    3.4929   14.5006    4.4680 N   0  0  0  0  0  0  0  0  0  0  0  0
    6.2333   18.0992    5.5708 N   0  0  0  0  0  0  0  0  0  0  0  0
    4.8546   16.2815    5.0338 N   0  0  0  0  0  0  0  0  0  0  0  0
    4.6368   15.6144    2.7869 N   0  0  0  0  0  0  0  0  0  0  0  0
    7.2256   18.6133    1.5955 N   0  0  0  0  0  0  0  0  0  0  0  0
    6.6626   17.7440    0.6484 C   0  0  0  0  0  0  0  0  0  0  0  0
    5.7859   16.7155    1.0658 N   0  0  0  0  0  0  0  0  0  0  0  0
    5.4813   16.5930    2.3758 C   0  0  0  0  0  0  0  0  0  0  0  0
    6.0249   17.4583    3.3307 C   0  0  0  0  0  0  0  0  0  0  0  0
    6.9011   18.4766    2.9597 C   0  0  0  0  0  0  0  0  0  0  0  0
  1  3  1  0  0  0  0
  1  5  1  0  0  0  0
  1  6  2  0  0  0  0
  2  5  2  0  0  0  0
  2 11  1  0  0  0  0
  2  4  1  0  0  0  0
  6 10  1  0  0  0  0
  7  8  2  0  0  0  0
  7 12  1  0  0  0  0
  8  9  1  0  0  0  0
  9 10  2  0  0  0  0
 10 11  1  0  0  0  0
 11 12  2  0  0  0  0
M  END
>  <CHROM.1>
5.59169198,16.88184361,3.23280098,2.56753817,0.88673361,1.39001801

>  <Name>
ligand

>  <RI>
0

>  <Rbt.Current_Directory>
/home/itssahil/PROJECTS/Mol_Feturizer/Test_systems_manuscript/rnas/4lx5

>  <Rbt.Executable>
rbdock ($Id: //depot/dev/client3/rdock/2013.1/src/exe/rbdock.cxx#4 $)

>  <Rbt.Library>
libRbt.so (2013.1, Build901 2013/11/27)

>  <Rbt.Parameter_File>
/export/apps/rDock/src/rDock_2013.1_src/data/scripts/dock_solv.prm

>  <Rbt.Receptor>
prm/blind_docking_80.prm

>  <SCORE>
-12.1024

>  <SCORE.INTER>
-12.1024

>  <SCORE.INTER.CONST>
1

>  <SCORE.INTER.POLAR>
0

>  <SCORE.INTER.ROT>
0

>  <SCORE.INTER.SOLV>
15.0012

>  <SCORE.INTER.VDW>
-16.6687

>  <SCORE.INTER.norm>
-1.00853

>  <SCORE.INTRA>
0

>  <SCORE.INTRA.DIHEDRAL>
0

>  <SCORE.INTRA.DIHEDRAL.0>
0

>  <SCORE.INTRA.POLAR>
0

>  <SCORE.INTRA.POLAR.0>
0

>  <SCORE.INTRA.REPUL>
0

>  <SCORE.INTRA.REPUL.0>
0

>  <SCORE.INTRA.SOLV>
0

>  <SCORE.INTRA.SOLV.lig_0>
-48.1583

>  <SCORE.INTRA.VDW>
0

>  <SCORE.INTRA.VDW.0>
0

>  <SCORE.INTRA.norm>
0

>  <SCORE.RESTR>
0

>  <SCORE.RESTR.CAVITY>
0

>  <SCORE.RESTR.norm>
0

>  <SCORE.SYSTEM>
0

>  <SCORE.SYSTEM.CONST>
0

>  <SCORE.SYSTEM.DIHEDRAL>
0

>  <SCORE.SYSTEM.SOLV>
0

>  <SCORE.SYSTEM.norm>
0

>  <SCORE.heavy>
12

>  <SCORE.norm>
-1.00853

>  <RMSD>
4.089

$$$$
ligand
 OpenBabel02271912143D
libRbt.so/2013.1/901 2013/11/27
 12 13  0  0  0  0  0  0  0  0999 V2000
    4.4056   15.4125    4.1779 C   0  0  0  0  0  0  0  0  0  0  0  0
    5.7214   17.2534    4.7388 C   0  0  0  0  0  0  0  0  0  0  0  0
    3.5834   14.4399    4.5614 N   0  0  0  0  0  0  0  0  0  0  0  0
    6.2562   18.1008    5.6248 N   0  0  0  0  0  0  0  0  0  0  0  0
    4.9117   16.2519    5.1077 N   0  0  0  0  0  0  0  0  0  0  0  0
    4.6990   15.5623    2.8671 N   0  0  0  0  0  0  0  0  0  0  0  0
    7.2238   18.6019    1.6417 N   0  0  0  0  0  0  0  0  0  0  0  0
    6.6747   17.7140    0.7038 C   0  0  0  0  0  0  0  0  0  0  0  0
    5.8200   16.6718    1.1328 N   0  0  0  0  0  0  0  0  0  0  0  0
    5.5226   16.5540    2.4449 C   0  0  0  0  0  0  0  0  0  0  0  0
    6.0524   17.4376    3.3907 C   0  0  0  0  0  0  0  0  0  0  0  0
    6.9071   18.4699    3.0083 C   0  0  0  0  0  0  0  0  0  0  0  0
  1  3  1  0  0  0  0
  1  5  1  0  0  0  0
  1  6  2  0  0  0  0
  2  5  2  0  0  0  0
  2 11  1  0  0  0  0
  2  4  1  0  0  0  0
  6 10  1  0  0  0  0
  7  8  2  0  0  0  0
  7 12  1  0  0  0  0
  8  9  1  0  0  0  0
  9 10  2  0  0  0  0
 10 11  1  0  0  0  0
 11 12  2  0  0  0  0
M  END
>  <CHROM.1>
5.63032787,16.85196191,3.29912324,2.56755052,0.90679196,1.38190046

>  <Name>
ligand

>  <RI>
0

>  <Rbt.Current_Directory>
/home/itssahil/PROJECTS/Mol_Feturizer/Test_systems_manuscript/rnas/4lx5

>  <Rbt.Executable>
rbdock ($Id: //depot/dev/client3/rdock/2013.1/src/exe/rbdock.cxx#4 $)

>  <Rbt.Library>
libRbt.so (2013.1, Build901 2013/11/27)

>  <Rbt.Parameter_File>
/export/apps/rDock/src/rDock_2013.1_src/data/scripts/dock_solv.prm

>  <Rbt.Receptor>
prm/pocket_docking_5.prm

>  <SCORE>
-12.0804

>  <SCORE.INTER>
-12.0804

>  <SCORE.INTER.CONST>
1

>  <SCORE.INTER.POLAR>
0

>  <SCORE.INTER.ROT>
0

>  <SCORE.INTER.SOLV>
15.7069

>  <SCORE.INTER.VDW>
-16.8892

>  <SCORE.INTER.norm>
-1.0067

>  <SCORE.INTRA>
0

>  <SCORE.INTRA.DIHEDRAL>
0

>  <SCORE.INTRA.DIHEDRAL.0>
0

>  <SCORE.INTRA.POLAR>
0

>  <SCORE.INTRA.POLAR.0>
0

>  <SCORE.INTRA.REPUL>
0

>  <SCORE.INTRA.REPUL.0>
0

>  <SCORE.INTRA.SOLV>
0

>  <SCORE.INTRA.SOLV.lig_0>
-48.1583

>  <SCORE.INTRA.VDW>
0

>  <SCORE.INTRA.VDW.0>
0

>  <SCORE.INTRA.norm>
0

>  <SCORE.RESTR>
0

>  <SCORE.RESTR.CAVITY>
0

>  <SCORE.RESTR.norm>
0

>  <SCORE.SYSTEM>
0

>  <SCORE.SYSTEM.CONST>
0

>  <SCORE.SYSTEM.DIHEDRAL>
0

>  <SCORE.SYSTEM.SOLV>
0

>  <SCORE.SYSTEM.norm>
0

>  <SCORE.heavy>
12

>  <SCORE.norm>
-1.0067

>  <RMSD>
4.091

$$$$
ligand
 OpenBabel02271912143D
libRbt.so/2013.1/901 2013/11/27
 12 13  0  0  0  0  0  0  0  0999 V2000
    4.3389   15.4449    4.1223 C   0  0  0  0  0  0  0  0  0  0  0  0
    5.6920   17.2565    4.6901 C   0  0  0  0  0  0  0  0  0  0  0  0
    3.4961   14.4887    4.5020 N   0  0  0  0  0  0  0  0  0  0  0  0
    6.2429   18.0902    5.5792 N   0  0  0  0  0  0  0  0  0  0  0  0
    4.8610   16.2711    5.0551 N   0  0  0  0  0  0  0  0  0  0  0  0
    4.6374   15.5921    2.8124 N   0  0  0  0  0  0  0  0  0  0  0  0
    7.2269   18.5816    1.5989 N   0  0  0  0  0  0  0  0  0  0  0  0
    6.6608   17.7078    0.6578 C   0  0  0  0  0  0  0  0  0  0  0  0
    5.7839   16.6826    1.0827 N   0  0  0  0  0  0  0  0  0  0  0  0
    5.4821   16.5675    2.3941 C   0  0  0  0  0  0  0  0  0  0  0  0
    6.0288   17.4374    3.3430 C   0  0  0  0  0  0  0  0  0  0  0  0
    6.9053   18.4527    2.9646 C   0  0  0  0  0  0  0  0  0  0  0  0
  1  3  1  0  0  0  0
  1  5  1  0  0  0  0
  1  6  2  0  0  0  0
  2  5  2  0  0  0  0
  2 11  1  0  0  0  0
  2  4  1  0  0  0  0
  6 10  1  0  0  0  0
  7  8  2  0  0  0  0
  7 12  1  0  0  0  0
  8  9  1  0  0  0  0
  9 10  2  0  0  0  0
 10 11  1  0  0  0  0
 11 12  2  0  0  0  0
M  END
>  <CHROM.1>
5.59473604,16.86087969,3.24922156,2.56372961,0.88603421,1.38755451

>  <Name>
ligand

>  <RI>
0

>  <Rbt.Current_Directory>
/home/itssahil/PROJECTS/Mol_Feturizer/Test_systems_manuscript/rnas/4lx5

>  <Rbt.Executable>
rbdock ($Id: //depot/dev/client3/rdock/2013.1/src/exe/rbdock.cxx#4 $)

>  <Rbt.Library>
libRbt.so (2013.1, Build901 2013/11/27)

>  <Rbt.Parameter_File>
/export/apps/rDock/src/rDock_2013.1_src/data/scripts/dock_solv.prm

>  <Rbt.Receptor>
prm/blind_docking_80.prm

>  <SCORE>
-12.0491

>  <SCORE.INTER>
-12.0491

>  <SCORE.INTER.CONST>
1

>  <SCORE.INTER.POLAR>
0

>  <SCORE.INTER.ROT>
0

>  <SCORE.INTER.SOLV>
15.0893

>  <SCORE.INTER.VDW>
-16.6625

>  <SCORE.INTER.norm>
-1.00409

>  <SCORE.INTRA>
0

>  <SCORE.INTRA.DIHEDRAL>
0

>  <SCORE.INTRA.DIHEDRAL.0>
0

>  <SCORE.INTRA.POLAR>
0

>  <SCORE.INTRA.POLAR.0>
0

>  <SCORE.INTRA.REPUL>
0

>  <SCORE.INTRA.REPUL.0>
0

>  <SCORE.INTRA.SOLV>
0

>  <SCORE.INTRA.SOLV.lig_0>
-48.1583

>  <SCORE.INTRA.VDW>
0

>  <SCORE.INTRA.VDW.0>
0

>  <SCORE.INTRA.norm>
0

>  <SCORE.RESTR>
0

>  <SCORE.RESTR.CAVITY>
0

>  <SCORE.RESTR.norm>
0

>  <SCORE.SYSTEM>
0

>  <SCORE.SYSTEM.CONST>
0

>  <SCORE.SYSTEM.DIHEDRAL>
0

>  <SCORE.SYSTEM.SOLV>
0

>  <SCORE.SYSTEM.norm>
0

>  <SCORE.heavy>
12

>  <SCORE.norm>
-1.00409

>  <RMSD>
4.096

$$$$
ligand
 OpenBabel02271912143D
libRbt.so/2013.1/901 2013/11/27
 12 13  0  0  0  0  0  0  0  0999 V2000
    4.3752   15.4256    4.1919 C   0  0  0  0  0  0  0  0  0  0  0  0
    5.7130   17.2530    4.7447 C   0  0  0  0  0  0  0  0  0  0  0  0
    3.5433   14.4632    4.5801 N   0  0  0  0  0  0  0  0  0  0  0  0
    6.2596   18.0966    5.6271 N   0  0  0  0  0  0  0  0  0  0  0  0
    4.8932   16.2615    5.1182 N   0  0  0  0  0  0  0  0  0  0  0  0
    4.6666   15.5689    2.8800 N   0  0  0  0  0  0  0  0  0  0  0  0
    7.2218   18.5770    1.6401 N   0  0  0  0  0  0  0  0  0  0  0  0
    6.6601   17.6930    0.7059 C   0  0  0  0  0  0  0  0  0  0  0  0
    5.7950   16.6615    1.1398 N   0  0  0  0  0  0  0  0  0  0  0  0
    5.5000   16.5503    2.4531 C   0  0  0  0  0  0  0  0  0  0  0  0
    6.0423   17.4302    3.3952 C   0  0  0  0  0  0  0  0  0  0  0  0
    6.9073   18.4520    3.0078 C   0  0  0  0  0  0  0  0  0  0  0  0
  1  3  1  0  0  0  0
  1  5  1  0  0  0  0
  1  6  2  0  0  0  0
  2  5  2  0  0  0  0
  2 11  1  0  0  0  0
  2  4  1  0  0  0  0
  6 10  1  0  0  0  0
  7  8  2  0  0  0  0
  7 12  1  0  0  0  0
  8  9  1  0  0  0  0
  9 10  2  0  0  0  0
 10 11  1  0  0  0  0
 11 12  2  0  0  0  0
M  END
>  <CHROM.1>
5.61343407,16.84908666,3.30621910,2.55982538,0.89633907,1.38547238

>  <Name>
ligand

>  <RI>
0

>  <Rbt.Current_Directory>
/home/itssahil/PROJECTS/Mol_Feturizer/Test_systems_manuscript/rnas/4lx5

>  <Rbt.Executable>
rbdock ($Id: //depot/dev/client3/rdock/2013.1/src/exe/rbdock.cxx#4 $)

>  <Rbt.Library>
libRbt.so (2013.1, Build901 2013/11/27)

>  <Rbt.Parameter_File>
/export/apps/rDock/src/rDock_2013.1_src/data/scripts/dock_solv.prm

>  <Rbt.Receptor>
prm/pocket_docking_5.prm

>  <SCORE>
-12.0603

>  <SCORE.INTER>
-12.0603

>  <SCORE.INTER.CONST>
1

>  <SCORE.INTER.POLAR>
0

>  <SCORE.INTER.ROT>
0

>  <SCORE.INTER.SOLV>
15.6046

>  <SCORE.INTER.VDW>
-16.8417

>  <SCORE.INTER.norm>
-1.00502

>  <SCORE.INTRA>
0

>  <SCORE.INTRA.DIHEDRAL>
0

>  <SCORE.INTRA.DIHEDRAL.0>
0

>  <SCORE.INTRA.POLAR>
0

>  <SCORE.INTRA.POLAR.0>
0

>  <SCORE.INTRA.REPUL>
0

>  <SCORE.INTRA.REPUL.0>
0

>  <SCORE.INTRA.SOLV>
0

>  <SCORE.INTRA.SOLV.lig_0>
-48.1583

>  <SCORE.INTRA.VDW>
0

>  <SCORE.INTRA.VDW.0>
0

>  <SCORE.INTRA.norm>
0

>  <SCORE.RESTR>
0

>  <SCORE.RESTR.CAVITY>
0

>  <SCORE.RESTR.norm>
0

>  <SCORE.SYSTEM>
0

>  <SCORE.SYSTEM.CONST>
0

>  <SCORE.SYSTEM.DIHEDRAL>
0

>  <SCORE.SYSTEM.SOLV>
0

>  <SCORE.SYSTEM.norm>
0

>  <SCORE.heavy>
12

>  <SCORE.norm>
-1.00502

>  <RMSD>
4.098

$$$$
ligand
 OpenBabel02271912143D
libRbt.so/2013.1/901 2013/11/27
 12 13  0  0  0  0  0  0  0  0999 V2000
    4.2719   15.4798    4.1137 C   0  0  0  0  0  0  0  0  0  0  0  0
    5.6911   17.2414    4.6770 C   0  0  0  0  0  0  0  0  0  0  0  0
    3.4103   14.5426    4.4986 N   0  0  0  0  0  0  0  0  0  0  0  0
    6.2874   18.0440    5.5654 N   0  0  0  0  0  0  0  0  0  0  0  0
    4.8402   16.2750    5.0465 N   0  0  0  0  0  0  0  0  0  0  0  0
    4.5435   15.6396    2.7994 N   0  0  0  0  0  0  0  0  0  0  0  0
    7.1910   18.5715    1.5707 N   0  0  0  0  0  0  0  0  0  0  0  0
    6.5771   17.7302    0.6300 C   0  0  0  0  0  0  0  0  0  0  0  0
    5.6805   16.7242    1.0599 N   0  0  0  0  0  0  0  0  0  0  0  0
    5.4065   16.5966    2.3762 C   0  0  0  0  0  0  0  0  0  0  0  0
    6.0011   17.4344    3.3251 C   0  0  0  0  0  0  0  0  0  0  0  0
    6.8982   18.4297    2.9416 C   0  0  0  0  0  0  0  0  0  0  0  0
  1  3  1  0  0  0  0
  1  5  1  0  0  0  0
  1  6  2  0  0  0  0
  2  5  2  0  0  0  0
  2 11  1  0  0  0  0
  2  4  1  0  0  0  0
  6 10  1  0  0  0  0
  7  8  2  0  0  0  0
  7 12  1  0  0  0  0
  8  9  1  0  0  0  0
  9 10  2  0  0  0  0
 10 11  1  0  0  0  0
 11 12  2  0  0  0  0
M  END
>  <CHROM.1>
5.54805536,16.87250100,3.23285852,2.51969958,0.86070862,1.43732962

>  <Name>
ligand

>  <RI>
0

>  <Rbt.Current_Directory>
/home/itssahil/PROJECTS/Mol_Feturizer/Test_systems_manuscript/rnas/4lx5

>  <Rbt.Executable>
rbdock ($Id: //depot/dev/client3/rdock/2013.1/src/exe/rbdock.cxx#4 $)

>  <Rbt.Library>
libRbt.so (2013.1, Build901 2013/11/27)

>  <Rbt.Parameter_File>
/export/apps/rDock/src/rDock_2013.1_src/data/scripts/dock_solv.prm

>  <Rbt.Receptor>
prm/pocket_docking_8.prm

>  <SCORE>
-12.0465

>  <SCORE.INTER>
-12.0465

>  <SCORE.INTER.CONST>
1

>  <SCORE.INTER.POLAR>
0

>  <SCORE.INTER.ROT>
0

>  <SCORE.INTER.SOLV>
14.723

>  <SCORE.INTER.VDW>
-16.5387

>  <SCORE.INTER.norm>
-1.00388

>  <SCORE.INTRA>
0

>  <SCORE.INTRA.DIHEDRAL>
0

>  <SCORE.INTRA.DIHEDRAL.0>
0

>  <SCORE.INTRA.POLAR>
0

>  <SCORE.INTRA.POLAR.0>
0

>  <SCORE.INTRA.REPUL>
0

>  <SCORE.INTRA.REPUL.0>
0

>  <SCORE.INTRA.SOLV>
0

>  <SCORE.INTRA.SOLV.lig_0>
-48.1583

>  <SCORE.INTRA.VDW>
0

>  <SCORE.INTRA.VDW.0>
0

>  <SCORE.INTRA.norm>
0

>  <SCORE.RESTR>
0

>  <SCORE.RESTR.CAVITY>
0

>  <SCORE.RESTR.norm>
0

>  <SCORE.SYSTEM>
0

>  <SCORE.SYSTEM.CONST>
0

>  <SCORE.SYSTEM.DIHEDRAL>
0

>  <SCORE.SYSTEM.SOLV>
0

>  <SCORE.SYSTEM.norm>
0

>  <SCORE.heavy>
12

>  <SCORE.norm>
-1.00388

>  <RMSD>
4.106

$$$$
ligand
 OpenBabel02271912143D
libRbt.so/2013.1/901 2013/11/27
 12 13  0  0  0  0  0  0  0  0999 V2000
    4.2804   15.4796    4.1175 C   0  0  0  0  0  0  0  0  0  0  0  0
    5.6883   17.2523    4.6746 C   0  0  0  0  0  0  0  0  0  0  0  0
    3.4213   14.5412    4.5051 N   0  0  0  0  0  0  0  0  0  0  0  0
    6.2761   18.0645    5.5599 N   0  0  0  0  0  0  0  0  0  0  0  0
    4.8400   16.2846    5.0470 N   0  0  0  0  0  0  0  0  0  0  0  0
    4.5581   15.6306    2.8034 N   0  0  0  0  0  0  0  0  0  0  0  0
    7.1979   18.5658    1.5660 N   0  0  0  0  0  0  0  0  0  0  0  0
    6.5929   17.7144    0.6286 C   0  0  0  0  0  0  0  0  0  0  0  0
    5.6989   16.7074    1.0615 N   0  0  0  0  0  0  0  0  0  0  0  0
    5.4188   16.5885    2.3773 C   0  0  0  0  0  0  0  0  0  0  0  0
    6.0044   17.4365    3.3229 C   0  0  0  0  0  0  0  0  0  0  0  0
    6.8986   18.4331    2.9364 C   0  0  0  0  0  0  0  0  0  0  0  0
  1  3  1  0  0  0  0
  1  5  1  0  0  0  0
  1  6  2  0  0  0  0
  2  5  2  0  0  0  0
  2 11  1  0  0  0  0
  2  4  1  0  0  0  0
  6 10  1  0  0  0  0
  7  8  2  0  0  0  0
  7 12  1  0  0  0  0
  8  9  1  0  0  0  0
  9 10  2  0  0  0  0
 10 11  1  0  0  0  0
 11 12  2  0  0  0  0
M  END
>  <CHROM.1>
5.55449802,16.87166015,3.23256342,2.52862621,0.86473098,1.42289824

>  <Name>
ligand

>  <RI>
0

>  <Rbt.Current_Directory>
/home/itssahil/PROJECTS/Mol_Feturizer/Test_systems_manuscript/rnas/4lx5

>  <Rbt.Executable>
rbdock ($Id: //depot/dev/client3/rdock/2013.1/src/exe/rbdock.cxx#4 $)

>  <Rbt.Library>
libRbt.so (2013.1, Build901 2013/11/27)

>  <Rbt.Parameter_File>
/export/apps/rDock/src/rDock_2013.1_src/data/scripts/dock_solv.prm

>  <Rbt.Receptor>
prm/blind_docking_40.prm

>  <SCORE>
-12.0719

>  <SCORE.INTER>
-12.0719

>  <SCORE.INTER.CONST>
1

>  <SCORE.INTER.POLAR>
0

>  <SCORE.INTER.ROT>
0

>  <SCORE.INTER.SOLV>
14.7519

>  <SCORE.INTER.VDW>
-16.5652

>  <SCORE.INTER.norm>
-1.00599

>  <SCORE.INTRA>
0

>  <SCORE.INTRA.DIHEDRAL>
0

>  <SCORE.INTRA.DIHEDRAL.0>
0

>  <SCORE.INTRA.POLAR>
0

>  <SCORE.INTRA.POLAR.0>
0

>  <SCORE.INTRA.REPUL>
0

>  <SCORE.INTRA.REPUL.0>
0

>  <SCORE.INTRA.SOLV>
0

>  <SCORE.INTRA.SOLV.lig_0>
-48.1583

>  <SCORE.INTRA.VDW>
0

>  <SCORE.INTRA.VDW.0>
0

>  <SCORE.INTRA.norm>
0

>  <SCORE.RESTR>
0

>  <SCORE.RESTR.CAVITY>
0

>  <SCORE.RESTR.norm>
0

>  <SCORE.SYSTEM>
0

>  <SCORE.SYSTEM.CONST>
0

>  <SCORE.SYSTEM.DIHEDRAL>
0

>  <SCORE.SYSTEM.SOLV>
0

>  <SCORE.SYSTEM.norm>
0

>  <SCORE.heavy>
12

>  <SCORE.norm>
-1.00599

>  <RMSD>
4.108

$$$$
ligand
 OpenBabel02271912143D
libRbt.so/2013.1/901 2013/11/27
 12 13  0  0  0  0  0  0  0  0999 V2000
    4.2691   15.4798    4.1139 C   0  0  0  0  0  0  0  0  0  0  0  0
    5.6880   17.2419    4.6764 C   0  0  0  0  0  0  0  0  0  0  0  0
    3.4037   14.5460    4.4985 N   0  0  0  0  0  0  0  0  0  0  0  0
    6.2805   18.0480    5.5642 N   0  0  0  0  0  0  0  0  0  0  0  0
    4.8333   16.2787    5.0458 N   0  0  0  0  0  0  0  0  0  0  0  0
    4.5486   15.6324    2.8004 N   0  0  0  0  0  0  0  0  0  0  0  0
    7.2080   18.5537    1.5721 N   0  0  0  0  0  0  0  0  0  0  0  0
    6.5982   17.7086    0.6322 C   0  0  0  0  0  0  0  0  0  0  0  0
    5.6974   16.7063    1.0619 N   0  0  0  0  0  0  0  0  0  0  0  0
    5.4157   16.5859    2.3772 C   0  0  0  0  0  0  0  0  0  0  0  0
    6.0062   17.4275    3.3254 C   0  0  0  0  0  0  0  0  0  0  0  0
    6.9071   18.4193    2.9420 C   0  0  0  0  0  0  0  0  0  0  0  0
  1  3  1  0  0  0  0
  1  5  1  0  0  0  0
  1  6  2  0  0  0  0
  2  5  2  0  0  0  0
  2 11  1  0  0  0  0
  2  4  1  0  0  0  0
  6 10  1  0  0  0  0
  7  8  2  0  0  0  0
  7 12  1  0  0  0  0
  8  9  1  0  0  0  0
  9 10  2  0  0  0  0
 10 11  1  0  0  0  0
 11 12  2  0  0  0  0
M  END
>  <CHROM.1>
5.55270408,16.86587748,3.23332382,2.52811730,0.85825543,1.42587234

>  <Name>
ligand

>  <RI>
0

>  <Rbt.Current_Directory>
/home/itssahil/PROJECTS/Mol_Feturizer/Test_systems_manuscript/rnas/4lx5

>  <Rbt.Executable>
rbdock ($Id: //depot/dev/client3/rdock/2013.1/src/exe/rbdock.cxx#4 $)

>  <Rbt.Library>
libRbt.so (2013.1, Build901 2013/11/27)

>  <Rbt.Parameter_File>
/export/apps/rDock/src/rDock_2013.1_src/data/scripts/dock_solv.prm

>  <Rbt.Receptor>
prm/pocket_docking_8.prm

>  <SCORE>
-12.0714

>  <SCORE.INTER>
-12.0714

>  <SCORE.INTER.CONST>
1

>  <SCORE.INTER.POLAR>
0

>  <SCORE.INTER.ROT>
0

>  <SCORE.INTER.SOLV>
14.7033

>  <SCORE.INTER.VDW>
-16.5487

>  <SCORE.INTER.norm>
-1.00595

>  <SCORE.INTRA>
0

>  <SCORE.INTRA.DIHEDRAL>
0

>  <SCORE.INTRA.DIHEDRAL.0>
0

>  <SCORE.INTRA.POLAR>
0

>  <SCORE.INTRA.POLAR.0>
0

>  <SCORE.INTRA.REPUL>
0

>  <SCORE.INTRA.REPUL.0>
0

>  <SCORE.INTRA.SOLV>
0

>  <SCORE.INTRA.SOLV.lig_0>
-48.1583

>  <SCORE.INTRA.VDW>
0

>  <SCORE.INTRA.VDW.0>
0

>  <SCORE.INTRA.norm>
0

>  <SCORE.RESTR>
0

>  <SCORE.RESTR.CAVITY>
0

>  <SCORE.RESTR.norm>
0

>  <SCORE.SYSTEM>
0

>  <SCORE.SYSTEM.CONST>
0

>  <SCORE.SYSTEM.DIHEDRAL>
0

>  <SCORE.SYSTEM.SOLV>
0

>  <SCORE.SYSTEM.norm>
0

>  <SCORE.heavy>
12

>  <SCORE.norm>
-1.00595

>  <RMSD>
4.108

$$$$
ligand
 OpenBabel02271912143D
libRbt.so/2013.1/901 2013/11/27
 12 13  0  0  0  0  0  0  0  0999 V2000
    4.2872   15.4696    4.1325 C   0  0  0  0  0  0  0  0  0  0  0  0
    5.6982   17.2409    4.6862 C   0  0  0  0  0  0  0  0  0  0  0  0
    3.4289   14.5314    4.5223 N   0  0  0  0  0  0  0  0  0  0  0  0
    6.2897   18.0519    5.5702 N   0  0  0  0  0  0  0  0  0  0  0  0
    4.8507   16.2734    5.0607 N   0  0  0  0  0  0  0  0  0  0  0  0
    4.5602   15.6218    2.8176 N   0  0  0  0  0  0  0  0  0  0  0  0
    7.1974   18.5564    1.5734 N   0  0  0  0  0  0  0  0  0  0  0  0
    6.5886   17.7063    0.6374 C   0  0  0  0  0  0  0  0  0  0  0  0
    5.6955   16.6995    1.0726 N   0  0  0  0  0  0  0  0  0  0  0  0
    5.4200   16.5795    2.3893 C   0  0  0  0  0  0  0  0  0  0  0  0
    6.0096   17.4262    3.3335 C   0  0  0  0  0  0  0  0  0  0  0  0
    6.9031   18.4226    2.9448 C   0  0  0  0  0  0  0  0  0  0  0  0
  1  3  1  0  0  0  0
  1  5  1  0  0  0  0
  1  6  2  0  0  0  0
  2  5  2  0  0  0  0
  2 11  1  0  0  0  0
  2  4  1  0  0  0  0
  6 10  1  0  0  0  0
  7  8  2  0  0  0  0
  7 12  1  0  0  0  0
  8  9  1  0  0  0  0
  9 10  2  0  0  0  0
 10 11  1  0  0  0  0
 11 12  2  0  0  0  0
M  END
>  <CHROM.1>
5.55897893,16.86174020,3.24430031,2.52299476,0.86462265,1.42814767

>  <Name>
ligand

>  <RI>
0

>  <Rbt.Current_Directory>
/home/itssahil/PROJECTS/Mol_Feturizer/Test_systems_manuscript/rnas/4lx5

>  <Rbt.Executable>
rbdock ($Id: //depot/dev/client3/rdock/2013.1/src/exe/rbdock.cxx#4 $)

>  <Rbt.Library>
libRbt.so (2013.1, Build901 2013/11/27)

>  <Rbt.Parameter_File>
/export/apps/rDock/src/rDock_2013.1_src/data/scripts/dock_solv.prm

>  <Rbt.Receptor>
prm/blind_docking_80.prm

>  <SCORE>
-12.0729

>  <SCORE.INTER>
-12.0729

>  <SCORE.INTER.CONST>
1

>  <SCORE.INTER.POLAR>
0

>  <SCORE.INTER.ROT>
0

>  <SCORE.INTER.SOLV>
14.816

>  <SCORE.INTER.VDW>
-16.5873

>  <SCORE.INTER.norm>
-1.00607

>  <SCORE.INTRA>
0

>  <SCORE.INTRA.DIHEDRAL>
0

>  <SCORE.INTRA.DIHEDRAL.0>
0

>  <SCORE.INTRA.POLAR>
0

>  <SCORE.INTRA.POLAR.0>
0

>  <SCORE.INTRA.REPUL>
0

>  <SCORE.INTRA.REPUL.0>
0

>  <SCORE.INTRA.SOLV>
0

>  <SCORE.INTRA.SOLV.lig_0>
-48.1583

>  <SCORE.INTRA.VDW>
0

>  <SCORE.INTRA.VDW.0>
0

>  <SCORE.INTRA.norm>
0

>  <SCORE.RESTR>
0

>  <SCORE.RESTR.CAVITY>
0

>  <SCORE.RESTR.norm>
0

>  <SCORE.SYSTEM>
0

>  <SCORE.SYSTEM.CONST>
0

>  <SCORE.SYSTEM.DIHEDRAL>
0

>  <SCORE.SYSTEM.SOLV>
0

>  <SCORE.SYSTEM.norm>
0

>  <SCORE.heavy>
12

>  <SCORE.norm>
-1.00607

>  <RMSD>
4.109

$$$$
ligand
 OpenBabel02271912143D
libRbt.so/2013.1/901 2013/11/27
 12 13  0  0  0  0  0  0  0  0999 V2000
    4.2905   15.4713    4.1335 C   0  0  0  0  0  0  0  0  0  0  0  0
    5.6943   17.2496    4.6829 C   0  0  0  0  0  0  0  0  0  0  0  0
    3.4357   14.5308    4.5256 N   0  0  0  0  0  0  0  0  0  0  0  0
    6.2823   18.0653    5.5649 N   0  0  0  0  0  0  0  0  0  0  0  0
    4.8504   16.2798    5.0598 N   0  0  0  0  0  0  0  0  0  0  0  0
    4.5635   15.6208    2.8183 N   0  0  0  0  0  0  0  0  0  0  0  0
    7.1898   18.5623    1.5671 N   0  0  0  0  0  0  0  0  0  0  0  0
    6.5846   17.7072    0.6332 C   0  0  0  0  0  0  0  0  0  0  0  0
    5.6953   16.6981    1.0708 N   0  0  0  0  0  0  0  0  0  0  0  0
    5.4197   16.5807    2.3877 C   0  0  0  0  0  0  0  0  0  0  0  0
    6.0056   17.4323    3.3299 C   0  0  0  0  0  0  0  0  0  0  0  0
    6.8953   18.4311    2.9387 C   0  0  0  0  0  0  0  0  0  0  0  0
  1  3  1  0  0  0  0
  1  5  1  0  0  0  0
  1  6  2  0  0  0  0
  2  5  2  0  0  0  0
  2 11  1  0  0  0  0
  2  4  1  0  0  0  0
  6 10  1  0  0  0  0
  7  8  2  0  0  0  0
  7 12  1  0  0  0  0
  8  9  1  0  0  0  0
  9 10  2  0  0  0  0
 10 11  1  0  0  0  0
 11 12  2  0  0  0  0
M  END
>  <CHROM.1>
5.55719539,16.86587042,3.24203209,2.52451453,0.86841741,1.42419635

>  <Name>
ligand

>  <RI>
0

>  <Rbt.Current_Directory>
/home/itssahil/PROJECTS/Mol_Feturizer/Test_systems_manuscript/rnas/4lx5

>  <Rbt.Executable>
rbdock ($Id: //depot/dev/client3/rdock/2013.1/src/exe/rbdock.cxx#4 $)

>  <Rbt.Library>
libRbt.so (2013.1, Build901 2013/11/27)

>  <Rbt.Parameter_File>
/export/apps/rDock/src/rDock_2013.1_src/data/scripts/dock_solv.prm

>  <Rbt.Receptor>
prm/blind_docking_100.prm

>  <SCORE>
-12.0724

>  <SCORE.INTER>
-12.0724

>  <SCORE.INTER.CONST>
1

>  <SCORE.INTER.POLAR>
0

>  <SCORE.INTER.ROT>
0

>  <SCORE.INTER.SOLV>
14.8315

>  <SCORE.INTER.VDW>
-16.5921

>  <SCORE.INTER.norm>
-1.00604

>  <SCORE.INTRA>
0

>  <SCORE.INTRA.DIHEDRAL>
0

>  <SCORE.INTRA.DIHEDRAL.0>
0

>  <SCORE.INTRA.POLAR>
0

>  <SCORE.INTRA.POLAR.0>
0

>  <SCORE.INTRA.REPUL>
0

>  <SCORE.INTRA.REPUL.0>
0

>  <SCORE.INTRA.SOLV>
0

>  <SCORE.INTRA.SOLV.lig_0>
-48.1583

>  <SCORE.INTRA.VDW>
0

>  <SCORE.INTRA.VDW.0>
0

>  <SCORE.INTRA.norm>
0

>  <SCORE.RESTR>
0

>  <SCORE.RESTR.CAVITY>
0

>  <SCORE.RESTR.norm>
0

>  <SCORE.SYSTEM>
0

>  <SCORE.SYSTEM.CONST>
0

>  <SCORE.SYSTEM.DIHEDRAL>
0

>  <SCORE.SYSTEM.SOLV>
0

>  <SCORE.SYSTEM.norm>
0

>  <SCORE.heavy>
12

>  <SCORE.norm>
-1.00604

>  <RMSD>
4.110

$$$$
ligand
 OpenBabel02271912143D
libRbt.so/2013.1/901 2013/11/27
 12 13  0  0  0  0  0  0  0  0999 V2000
    5.2495   16.4763    2.8696 C   0  0  0  0  0  0  0  0  0  0  0  0
    2.9522   16.8010    2.6424 C   0  0  0  0  0  0  0  0  0  0  0  0
    6.4892   16.8618    2.5805 N   0  0  0  0  0  0  0  0  0  0  0  0
    1.8906   17.4374    2.1353 N   0  0  0  0  0  0  0  0  0  0  0  0
    4.2084   17.1576    2.3433 N   0  0  0  0  0  0  0  0  0  0  0  0
    5.0513   15.4310    3.7031 N   0  0  0  0  0  0  0  0  0  0  0  0
    1.2061   14.2336    4.6492 N   0  0  0  0  0  0  0  0  0  0  0  0
    2.3123   13.5534    5.1813 C   0  0  0  0  0  0  0  0  0  0  0  0
    3.6235   13.9637    4.8448 N   0  0  0  0  0  0  0  0  0  0  0  0
    3.7986   15.0246    4.0276 C   0  0  0  0  0  0  0  0  0  0  0  0
    2.7067   15.7202    3.4983 C   0  0  0  0  0  0  0  0  0  0  0  0
    1.4000   15.3391    3.7975 C   0  0  0  0  0  0  0  0  0  0  0  0
  1  3  1  0  0  0  0
  1  5  1  0  0  0  0
  1  6  2  0  0  0  0
  2  5  2  0  0  0  0
  2 11  1  0  0  0  0
  2  4  1  0  0  0  0
  6 10  1  0  0  0  0
  7  8  2  0  0  0  0
  7 12  1  0  0  0  0
  8  9  1  0  0  0  0
  9 10  2  0  0  0  0
 10 11  1  0  0  0  0
 11 12  2  0  0  0  0
M  END
>  <CHROM.1>
3.43325125,15.68052182,3.51148760,-0.79828861,-0.00354031,2.47740249

>  <Name>
ligand

>  <RI>
0

>  <Rbt.Current_Directory>
/home/itssahil/PROJECTS/Mol_Feturizer/Test_systems_manuscript/rnas/4lx5

>  <Rbt.Executable>
rbdock ($Id: //depot/dev/client3/rdock/2013.1/src/exe/rbdock.cxx#4 $)

>  <Rbt.Library>
libRbt.so (2013.1, Build901 2013/11/27)

>  <Rbt.Parameter_File>
/export/apps/rDock/src/rDock_2013.1_src/data/scripts/dock_solv.prm

>  <Rbt.Receptor>
prm/blind_docking_20.prm

>  <SCORE>
-6.26873

>  <SCORE.INTER>
-6.26873

>  <SCORE.INTER.CONST>
1

>  <SCORE.INTER.POLAR>
0

>  <SCORE.INTER.ROT>
0

>  <SCORE.INTER.SOLV>
15.6678

>  <SCORE.INTER.VDW>
-13.0018

>  <SCORE.INTER.norm>
-0.522394

>  <SCORE.INTRA>
0

>  <SCORE.INTRA.DIHEDRAL>
0

>  <SCORE.INTRA.DIHEDRAL.0>
0

>  <SCORE.INTRA.POLAR>
0

>  <SCORE.INTRA.POLAR.0>
0

>  <SCORE.INTRA.REPUL>
0

>  <SCORE.INTRA.REPUL.0>
0

>  <SCORE.INTRA.SOLV>
0

>  <SCORE.INTRA.SOLV.lig_0>
-48.1583

>  <SCORE.INTRA.VDW>
0

>  <SCORE.INTRA.VDW.0>
0

>  <SCORE.INTRA.norm>
0

>  <SCORE.RESTR>
0

>  <SCORE.RESTR.CAVITY>
0

>  <SCORE.RESTR.norm>
0

>  <SCORE.SYSTEM>
0

>  <SCORE.SYSTEM.CONST>
0

>  <SCORE.SYSTEM.DIHEDRAL>
0

>  <SCORE.SYSTEM.SOLV>
0

>  <SCORE.SYSTEM.norm>
0

>  <SCORE.heavy>
12

>  <SCORE.norm>
-0.522394

>  <RMSD>
4.131

$$$$
ligand
 OpenBabel02271912143D
libRbt.so/2013.1/901 2013/11/27
 12 13  0  0  0  0  0  0  0  0999 V2000
    5.2408   16.4660    2.8787 C   0  0  0  0  0  0  0  0  0  0  0  0
    2.9430   16.7975    2.6655 C   0  0  0  0  0  0  0  0  0  0  0  0
    6.4798   16.8511    2.5866 N   0  0  0  0  0  0  0  0  0  0  0  0
    1.8804   17.4402    2.1688 N   0  0  0  0  0  0  0  0  0  0  0  0
    4.1985   17.1537    2.3630 N   0  0  0  0  0  0  0  0  0  0  0  0
    5.0443   15.4145    3.7049 N   0  0  0  0  0  0  0  0  0  0  0  0
    1.2011   14.2181    4.6606 N   0  0  0  0  0  0  0  0  0  0  0  0
    2.3085   13.5313    5.1817 C   0  0  0  0  0  0  0  0  0  0  0  0
    3.6189   13.9414    4.8420 N   0  0  0  0  0  0  0  0  0  0  0  0
    3.7923   15.0083    4.0324 C   0  0  0  0  0  0  0  0  0  0  0  0
    2.6994   15.7104    3.5140 C   0  0  0  0  0  0  0  0  0  0  0  0
    1.3933   15.3299    3.8167 C   0  0  0  0  0  0  0  0  0  0  0  0
  1  3  1  0  0  0  0
  1  5  1  0  0  0  0
  1  6  2  0  0  0  0
  2  5  2  0  0  0  0
  2 11  1  0  0  0  0
  2  4  1  0  0  0  0
  6 10  1  0  0  0  0
  7  8  2  0  0  0  0
  7 12  1  0  0  0  0
  8  9  1  0  0  0  0
  9 10  2  0  0  0  0
 10 11  1  0  0  0  0
 11 12  2  0  0  0  0
M  END
>  <CHROM.1>
3.42590100,15.66909834,3.52330314,-0.79957466,-0.00880021,2.48532079

>  <Name>
ligand

>  <RI>
0

>  <Rbt.Current_Directory>
/home/itssahil/PROJECTS/Mol_Feturizer/Test_systems_manuscript/rnas/4lx5

>  <Rbt.Executable>
rbdock ($Id: //depot/dev/client3/rdock/2013.1/src/exe/rbdock.cxx#4 $)

>  <Rbt.Library>
libRbt.so (2013.1, Build901 2013/11/27)

>  <Rbt.Parameter_File>
/export/apps/rDock/src/rDock_2013.1_src/data/scripts/dock_solv.prm

>  <Rbt.Receptor>
prm/blind_docking_20.prm

>  <SCORE>
-6.29082

>  <SCORE.INTER>
-6.29082

>  <SCORE.INTER.CONST>
1

>  <SCORE.INTER.POLAR>
0

>  <SCORE.INTER.ROT>
0

>  <SCORE.INTER.SOLV>
15.6607

>  <SCORE.INTER.VDW>
-13.0141

>  <SCORE.INTER.norm>
-0.524235

>  <SCORE.INTRA>
0

>  <SCORE.INTRA.DIHEDRAL>
0

>  <SCORE.INTRA.DIHEDRAL.0>
0

>  <SCORE.INTRA.POLAR>
0

>  <SCORE.INTRA.POLAR.0>
0

>  <SCORE.INTRA.REPUL>
0

>  <SCORE.INTRA.REPUL.0>
0

>  <SCORE.INTRA.SOLV>
0

>  <SCORE.INTRA.SOLV.lig_0>
-48.1583

>  <SCORE.INTRA.VDW>
0

>  <SCORE.INTRA.VDW.0>
0

>  <SCORE.INTRA.norm>
0

>  <SCORE.RESTR>
0

>  <SCORE.RESTR.CAVITY>
0

>  <SCORE.RESTR.norm>
0

>  <SCORE.SYSTEM>
0

>  <SCORE.SYSTEM.CONST>
0

>  <SCORE.SYSTEM.DIHEDRAL>
0

>  <SCORE.SYSTEM.SOLV>
0

>  <SCORE.SYSTEM.norm>
0

>  <SCORE.heavy>
12

>  <SCORE.norm>
-0.524235

>  <RMSD>
4.143

$$$$
ligand
 OpenBabel02271912143D
libRbt.so/2013.1/901 2013/11/27
 12 13  0  0  0  0  0  0  0  0999 V2000
    5.2268   16.4570    2.8575 C   0  0  0  0  0  0  0  0  0  0  0  0
    2.9262   16.7722    2.6508 C   0  0  0  0  0  0  0  0  0  0  0  0
    6.4622   16.8473    2.5570 N   0  0  0  0  0  0  0  0  0  0  0  0
    1.8576   17.4039    2.1529 N   0  0  0  0  0  0  0  0  0  0  0  0
    4.1782   17.1337    2.3401 N   0  0  0  0  0  0  0  0  0  0  0  0
    5.0403   15.4115    3.6936 N   0  0  0  0  0  0  0  0  0  0  0  0
    1.2086   14.1994    4.6752 N   0  0  0  0  0  0  0  0  0  0  0  0
    2.3224   13.5241    5.1978 C   0  0  0  0  0  0  0  0  0  0  0  0
    3.6288   13.9394    4.8492 N   0  0  0  0  0  0  0  0  0  0  0  0
    3.7922   15.0003    4.0297 C   0  0  0  0  0  0  0  0  0  0  0  0
    2.6929   15.6911    3.5097 C   0  0  0  0  0  0  0  0  0  0  0  0
    1.3904   15.3050    3.8210 C   0  0  0  0  0  0  0  0  0  0  0  0
  1  3  1  0  0  0  0
  1  5  1  0  0  0  0
  1  6  2  0  0  0  0
  2  5  2  0  0  0  0
  2 11  1  0  0  0  0
  2  4  1  0  0  0  0
  6 10  1  0  0  0  0
  7  8  2  0  0  0  0
  7 12  1  0  0  0  0
  8  9  1  0  0  0  0
  9 10  2  0  0  0  0
 10 11  1  0  0  0  0
 11 12  2  0  0  0  0
M  END
>  <CHROM.1>
3.41962323,15.65436835,3.51637020,-0.80701942,-0.00813541,2.47659028

>  <Name>
ligand

>  <RI>
0

>  <Rbt.Current_Directory>
/home/itssahil/PROJECTS/Mol_Feturizer/Test_systems_manuscript/rnas/4lx5

>  <Rbt.Executable>
rbdock ($Id: //depot/dev/client3/rdock/2013.1/src/exe/rbdock.cxx#4 $)

>  <Rbt.Library>
libRbt.so (2013.1, Build901 2013/11/27)

>  <Rbt.Parameter_File>
/export/apps/rDock/src/rDock_2013.1_src/data/scripts/dock_solv.prm

>  <Rbt.Receptor>
prm/blind_docking_20.prm

>  <SCORE>
-6.33009

>  <SCORE.INTER>
-6.33009

>  <SCORE.INTER.CONST>
1

>  <SCORE.INTER.POLAR>
0

>  <SCORE.INTER.ROT>
0

>  <SCORE.INTER.SOLV>
15.6795

>  <SCORE.INTER.VDW>
-13.0466

>  <SCORE.INTER.norm>
-0.527508

>  <SCORE.INTRA>
0

>  <SCORE.INTRA.DIHEDRAL>
0

>  <SCORE.INTRA.DIHEDRAL.0>
0

>  <SCORE.INTRA.POLAR>
0

>  <SCORE.INTRA.POLAR.0>
0

>  <SCORE.INTRA.REPUL>
0

>  <SCORE.INTRA.REPUL.0>
0

>  <SCORE.INTRA.SOLV>
0

>  <SCORE.INTRA.SOLV.lig_0>
-48.1583

>  <SCORE.INTRA.VDW>
0

>  <SCORE.INTRA.VDW.0>
0

>  <SCORE.INTRA.norm>
0

>  <SCORE.RESTR>
0

>  <SCORE.RESTR.CAVITY>
0

>  <SCORE.RESTR.norm>
0

>  <SCORE.SYSTEM>
0

>  <SCORE.SYSTEM.CONST>
0

>  <SCORE.SYSTEM.DIHEDRAL>
0

>  <SCORE.SYSTEM.SOLV>
0

>  <SCORE.SYSTEM.norm>
0

>  <SCORE.heavy>
12

>  <SCORE.norm>
-0.527508

>  <RMSD>
4.144

$$$$
ligand
 OpenBabel02271912143D
libRbt.so/2013.1/901 2013/11/27
 12 13  0  0  0  0  0  0  0  0999 V2000
    5.2326   16.4357    2.8548 C   0  0  0  0  0  0  0  0  0  0  0  0
    2.9336   16.7591    2.6425 C   0  0  0  0  0  0  0  0  0  0  0  0
    6.4701   16.8193    2.5540 N   0  0  0  0  0  0  0  0  0  0  0  0
    1.8684   17.3922    2.1391 N   0  0  0  0  0  0  0  0  0  0  0  0
    4.1876   17.1137    2.3318 N   0  0  0  0  0  0  0  0  0  0  0  0
    5.0405   15.3959    3.6965 N   0  0  0  0  0  0  0  0  0  0  0  0
    1.2023   14.2050    4.6789 N   0  0  0  0  0  0  0  0  0  0  0  0
    2.3125   13.5283    5.2072 C   0  0  0  0  0  0  0  0  0  0  0  0
    3.6211   13.9363    4.8584 N   0  0  0  0  0  0  0  0  0  0  0  0
    3.7902   14.9917    4.0330 C   0  0  0  0  0  0  0  0  0  0  0  0
    2.6945   15.6839    3.5072 C   0  0  0  0  0  0  0  0  0  0  0  0
    1.3900   15.3049    3.8186 C   0  0  0  0  0  0  0  0  0  0  0  0
  1  3  1  0  0  0  0
  1  5  1  0  0  0  0
  1  6  2  0  0  0  0
  2  5  2  0  0  0  0
  2 11  1  0  0  0  0
  2  4  1  0  0  0  0
  6 10  1  0  0  0  0
  7  8  2  0  0  0  0
  7 12  1  0  0  0  0
  8  9  1  0  0  0  0
  9 10  2  0  0  0  0
 10 11  1  0  0  0  0
 11 12  2  0  0  0  0
M  END
>  <CHROM.1>
3.42107952,15.64430825,3.51529096,-0.80282432,-0.00937869,2.47082600

>  <Name>
ligand

>  <RI>
0

>  <Rbt.Current_Directory>
/home/itssahil/PROJECTS/Mol_Feturizer/Test_systems_manuscript/rnas/4lx5

>  <Rbt.Executable>
rbdock ($Id: //depot/dev/client3/rdock/2013.1/src/exe/rbdock.cxx#4 $)

>  <Rbt.Library>
libRbt.so (2013.1, Build901 2013/11/27)

>  <Rbt.Parameter_File>
/export/apps/rDock/src/rDock_2013.1_src/data/scripts/dock_solv.prm

>  <Rbt.Receptor>
prm/blind_docking_100.prm

>  <SCORE>
-6.28344

>  <SCORE.INTER>
-6.28344

>  <SCORE.INTER.CONST>
1

>  <SCORE.INTER.POLAR>
0

>  <SCORE.INTER.ROT>
0

>  <SCORE.INTER.SOLV>
15.79

>  <SCORE.INTER.VDW>
-13.0523

>  <SCORE.INTER.norm>
-0.52362

>  <SCORE.INTRA>
0

>  <SCORE.INTRA.DIHEDRAL>
0

>  <SCORE.INTRA.DIHEDRAL.0>
0

>  <SCORE.INTRA.POLAR>
0

>  <SCORE.INTRA.POLAR.0>
0

>  <SCORE.INTRA.REPUL>
0

>  <SCORE.INTRA.REPUL.0>
0

>  <SCORE.INTRA.SOLV>
0

>  <SCORE.INTRA.SOLV.lig_0>
-48.1583

>  <SCORE.INTRA.VDW>
0

>  <SCORE.INTRA.VDW.0>
0

>  <SCORE.INTRA.norm>
0

>  <SCORE.RESTR>
0

>  <SCORE.RESTR.CAVITY>
0

>  <SCORE.RESTR.norm>
0

>  <SCORE.SYSTEM>
0

>  <SCORE.SYSTEM.CONST>
0

>  <SCORE.SYSTEM.DIHEDRAL>
0

>  <SCORE.SYSTEM.SOLV>
0

>  <SCORE.SYSTEM.norm>
0

>  <SCORE.heavy>
12

>  <SCORE.norm>
-0.52362

>  <RMSD>
4.146

$$$$
ligand
 OpenBabel02271912143D
libRbt.so/2013.1/901 2013/11/27
 12 13  0  0  0  0  0  0  0  0999 V2000
    5.2328   16.4302    2.8606 C   0  0  0  0  0  0  0  0  0  0  0  0
    2.9345   16.7556    2.6448 C   0  0  0  0  0  0  0  0  0  0  0  0
    6.4711   16.8115    2.5602 N   0  0  0  0  0  0  0  0  0  0  0  0
    1.8705   17.3886    2.1385 N   0  0  0  0  0  0  0  0  0  0  0  0
    4.1892   17.1079    2.3346 N   0  0  0  0  0  0  0  0  0  0  0  0
    5.0386   15.3929    3.7050 N   0  0  0  0  0  0  0  0  0  0  0  0
    1.1979   14.2091    4.6862 N   0  0  0  0  0  0  0  0  0  0  0  0
    2.3067   13.5325    5.2176 C   0  0  0  0  0  0  0  0  0  0  0  0
    3.6161   13.9380    4.8692 N   0  0  0  0  0  0  0  0  0  0  0  0
    3.7874   14.9911    4.0411 C   0  0  0  0  0  0  0  0  0  0  0  0
    2.6931   15.6831    3.5122 C   0  0  0  0  0  0  0  0  0  0  0  0
    1.3878   15.3065    3.8231 C   0  0  0  0  0  0  0  0  0  0  0  0
  1  3  1  0  0  0  0
  1  5  1  0  0  0  0
  1  6  2  0  0  0  0
  2  5  2  0  0  0  0
  2 11  1  0  0  0  0
  2  4  1  0  0  0  0
  6 10  1  0  0  0  0
  7  8  2  0  0  0  0
  7 12  1  0  0  0  0
  8  9  1  0  0  0  0
  9 10  2  0  0  0  0
 10 11  1  0  0  0  0
 11 12  2  0  0  0  0
M  END
>  <CHROM.1>
3.41963268,15.64266800,3.52122602,-0.80120858,-0.00920602,2.46812679

>  <Name>
ligand

>  <RI>
0

>  <Rbt.Current_Directory>
/home/itssahil/PROJECTS/Mol_Feturizer/Test_systems_manuscript/rnas/4lx5

>  <Rbt.Executable>
rbdock ($Id: //depot/dev/client3/rdock/2013.1/src/exe/rbdock.cxx#4 $)

>  <Rbt.Library>
libRbt.so (2013.1, Build901 2013/11/27)

>  <Rbt.Parameter_File>
/export/apps/rDock/src/rDock_2013.1_src/data/scripts/dock_solv.prm

>  <Rbt.Receptor>
prm/blind_docking_20.prm

>  <SCORE>
-6.30777

>  <SCORE.INTER>
-6.30777

>  <SCORE.INTER.CONST>
1

>  <SCORE.INTER.POLAR>
0

>  <SCORE.INTER.ROT>
0

>  <SCORE.INTER.SOLV>
15.8172

>  <SCORE.INTER.VDW>
-13.0776

>  <SCORE.INTER.norm>
-0.525647

>  <SCORE.INTRA>
0

>  <SCORE.INTRA.DIHEDRAL>
0

>  <SCORE.INTRA.DIHEDRAL.0>
0

>  <SCORE.INTRA.POLAR>
0

>  <SCORE.INTRA.POLAR.0>
0

>  <SCORE.INTRA.REPUL>
0

>  <SCORE.INTRA.REPUL.0>
0

>  <SCORE.INTRA.SOLV>
0

>  <SCORE.INTRA.SOLV.lig_0>
-48.1583

>  <SCORE.INTRA.VDW>
0

>  <SCORE.INTRA.VDW.0>
0

>  <SCORE.INTRA.norm>
0

>  <SCORE.RESTR>
0

>  <SCORE.RESTR.CAVITY>
0

>  <SCORE.RESTR.norm>
0

>  <SCORE.SYSTEM>
0

>  <SCORE.SYSTEM.CONST>
0

>  <SCORE.SYSTEM.DIHEDRAL>
0

>  <SCORE.SYSTEM.SOLV>
0

>  <SCORE.SYSTEM.norm>
0

>  <SCORE.heavy>
12

>  <SCORE.norm>
-0.525647

>  <RMSD>
4.147

$$$$
ligand
 OpenBabel02271912143D
libRbt.so/2013.1/901 2013/11/27
 12 13  0  0  0  0  0  0  0  0999 V2000
    5.2135   16.4540    2.8678 C   0  0  0  0  0  0  0  0  0  0  0  0
    2.9132   16.7757    2.6684 C   0  0  0  0  0  0  0  0  0  0  0  0
    6.4491   16.8416    2.5645 N   0  0  0  0  0  0  0  0  0  0  0  0
    1.8448   17.4113    2.1748 N   0  0  0  0  0  0  0  0  0  0  0  0
    4.1653   17.1345    2.3548 N   0  0  0  0  0  0  0  0  0  0  0  0
    5.0267   15.4074    3.7023 N   0  0  0  0  0  0  0  0  0  0  0  0
    1.1946   14.2035    4.6926 N   0  0  0  0  0  0  0  0  0  0  0  0
    2.3081   13.5242    5.2107 C   0  0  0  0  0  0  0  0  0  0  0  0
    3.6145   13.9367    4.8591 N   0  0  0  0  0  0  0  0  0  0  0  0
    3.7784   14.9989    4.0412 C   0  0  0  0  0  0  0  0  0  0  0  0
    2.6794   15.6936    3.5258 C   0  0  0  0  0  0  0  0  0  0  0  0
    1.3769   15.3103    3.8401 C   0  0  0  0  0  0  0  0  0  0  0  0
  1  3  1  0  0  0  0
  1  5  1  0  0  0  0
  1  6  2  0  0  0  0
  2  5  2  0  0  0  0
  2 11  1  0  0  0  0
  2  4  1  0  0  0  0
  6 10  1  0  0  0  0
  7  8  2  0  0  0  0
  7 12  1  0  0  0  0
  8  9  1  0  0  0  0
  9 10  2  0  0  0  0
 10 11  1  0  0  0  0
 11 12  2  0  0  0  0
M  END
>  <CHROM.1>
3.40612047,15.65490294,3.53029572,-0.80670147,-0.01205632,2.47857250

>  <Name>
ligand

>  <RI>
0

>  <Rbt.Current_Directory>
/home/itssahil/PROJECTS/Mol_Feturizer/Test_systems_manuscript/rnas/4lx5

>  <Rbt.Executable>
rbdock ($Id: //depot/dev/client3/rdock/2013.1/src/exe/rbdock.cxx#4 $)

>  <Rbt.Library>
libRbt.so (2013.1, Build901 2013/11/27)

>  <Rbt.Parameter_File>
/export/apps/rDock/src/rDock_2013.1_src/data/scripts/dock_solv.prm

>  <Rbt.Receptor>
prm/blind_docking_20.prm

>  <SCORE>
-6.33712

>  <SCORE.INTER>
-6.33712

>  <SCORE.INTER.CONST>
1

>  <SCORE.INTER.POLAR>
0

>  <SCORE.INTER.ROT>
0

>  <SCORE.INTER.SOLV>
15.6796

>  <SCORE.INTER.VDW>
-13.0513

>  <SCORE.INTER.norm>
-0.528093

>  <SCORE.INTRA>
0

>  <SCORE.INTRA.DIHEDRAL>
0

>  <SCORE.INTRA.DIHEDRAL.0>
0

>  <SCORE.INTRA.POLAR>
0

>  <SCORE.INTRA.POLAR.0>
0

>  <SCORE.INTRA.REPUL>
0

>  <SCORE.INTRA.REPUL.0>
0

>  <SCORE.INTRA.SOLV>
0

>  <SCORE.INTRA.SOLV.lig_0>
-48.1583

>  <SCORE.INTRA.VDW>
0

>  <SCORE.INTRA.VDW.0>
0

>  <SCORE.INTRA.norm>
0

>  <SCORE.RESTR>
0

>  <SCORE.RESTR.CAVITY>
0

>  <SCORE.RESTR.norm>
0

>  <SCORE.SYSTEM>
0

>  <SCORE.SYSTEM.CONST>
0

>  <SCORE.SYSTEM.DIHEDRAL>
0

>  <SCORE.SYSTEM.SOLV>
0

>  <SCORE.SYSTEM.norm>
0

>  <SCORE.heavy>
12

>  <SCORE.norm>
-0.528093

>  <RMSD>
4.153

$$$$
ligand
 OpenBabel02271912143D
libRbt.so/2013.1/901 2013/11/27
 12 13  0  0  0  0  0  0  0  0999 V2000
    3.6088   15.4442    4.0458 C   0  0  0  0  0  0  0  0  0  0  0  0
    5.3122   16.9302    4.6159 C   0  0  0  0  0  0  0  0  0  0  0  0
    2.6212   14.6406    4.4304 N   0  0  0  0  0  0  0  0  0  0  0  0
    6.0605   17.5876    5.5086 N   0  0  0  0  0  0  0  0  0  0  0  0
    4.3298   16.0968    4.9835 N   0  0  0  0  0  0  0  0  0  0  0  0
    3.8569   15.6159    2.7283 N   0  0  0  0  0  0  0  0  0  0  0  0
    6.8983   18.1383    1.5026 N   0  0  0  0  0  0  0  0  0  0  0  0
    6.1245   17.4479    0.5571 C   0  0  0  0  0  0  0  0  0  0  0  0
    5.0929   16.5801    0.9854 N   0  0  0  0  0  0  0  0  0  0  0  0
    4.8478   16.4404    2.3061 C   0  0  0  0  0  0  0  0  0  0  0  0
    5.6022   17.1302    3.2606 C   0  0  0  0  0  0  0  0  0  0  0  0
    6.6341   17.9852    2.8781 C   0  0  0  0  0  0  0  0  0  0  0  0
  1  3  1  0  0  0  0
  1  5  1  0  0  0  0
  1  6  2  0  0  0  0
  2  5  2  0  0  0  0
  2 11  1  0  0  0  0
  2  4  1  0  0  0  0
  6 10  1  0  0  0  0
  7  8  2  0  0  0  0
  7 12  1  0  0  0  0
  8  9  1  0  0  0  0
  9 10  2  0  0  0  0
 10 11  1  0  0  0  0
 11 12  2  0  0  0  0
M  END
>  <CHROM.1>
5.06152302,16.65241512,3.16603034,2.44644486,0.70330575,1.53011199

>  <Name>
ligand

>  <RI>
0

>  <Rbt.Current_Directory>
/home/itssahil/PROJECTS/Mol_Feturizer/Test_systems_manuscript/rnas/4lx5

>  <Rbt.Executable>
rbdock ($Id: //depot/dev/client3/rdock/2013.1/src/exe/rbdock.cxx#4 $)

>  <Rbt.Library>
libRbt.so (2013.1, Build901 2013/11/27)

>  <Rbt.Parameter_File>
/export/apps/rDock/src/rDock_2013.1_src/data/scripts/dock_solv.prm

>  <Rbt.Receptor>
prm/blind_docking_20.prm

>  <SCORE>
-9.3733

>  <SCORE.INTER>
-9.41163

>  <SCORE.INTER.CONST>
1

>  <SCORE.INTER.POLAR>
0

>  <SCORE.INTER.ROT>
0

>  <SCORE.INTER.SOLV>
14.905

>  <SCORE.INTER.VDW>
-14.8428

>  <SCORE.INTER.norm>
-0.784302

>  <SCORE.INTRA>
0

>  <SCORE.INTRA.DIHEDRAL>
0

>  <SCORE.INTRA.DIHEDRAL.0>
0

>  <SCORE.INTRA.POLAR>
0

>  <SCORE.INTRA.POLAR.0>
0

>  <SCORE.INTRA.REPUL>
0

>  <SCORE.INTRA.REPUL.0>
0

>  <SCORE.INTRA.SOLV>
0

>  <SCORE.INTRA.SOLV.lig_0>
-48.1583

>  <SCORE.INTRA.VDW>
0

>  <SCORE.INTRA.VDW.0>
0

>  <SCORE.INTRA.norm>
0

>  <SCORE.RESTR>
0.038326

>  <SCORE.RESTR.CAVITY>
0.038326

>  <SCORE.RESTR.norm>
0.00319383

>  <SCORE.SYSTEM>
0

>  <SCORE.SYSTEM.CONST>
0

>  <SCORE.SYSTEM.DIHEDRAL>
0

>  <SCORE.SYSTEM.SOLV>
0

>  <SCORE.SYSTEM.norm>
0

>  <SCORE.heavy>
12

>  <SCORE.norm>
-0.781108

>  <RMSD>
4.241

$$$$
ligand
 OpenBabel02271912143D
libRbt.so/2013.1/901 2013/11/27
 12 13  0  0  0  0  0  0  0  0999 V2000
    5.1074   16.1610    2.8397 C   0  0  0  0  0  0  0  0  0  0  0  0
    2.9642   16.9805    2.4276 C   0  0  0  0  0  0  0  0  0  0  0  0
    6.4199   16.2534    2.6453 N   0  0  0  0  0  0  0  0  0  0  0  0
    2.1126   17.8217    1.8308 N   0  0  0  0  0  0  0  0  0  0  0  0
    4.2870   17.0409    2.2249 N   0  0  0  0  0  0  0  0  0  0  0  0
    4.6190   15.2101    3.6667 N   0  0  0  0  0  0  0  0  0  0  0  0
    0.5438   14.9233    4.3189 N   0  0  0  0  0  0  0  0  0  0  0  0
    1.4272   14.0302    4.9446 C   0  0  0  0  0  0  0  0  0  0  0  0
    2.8182   14.1296    4.7084 N   0  0  0  0  0  0  0  0  0  0  0  0
    3.2864   15.1012    3.8956 C   0  0  0  0  0  0  0  0  0  0  0  0
    2.4203   16.0062    3.2736 C   0  0  0  0  0  0  0  0  0  0  0  0
    1.0428   15.9333    3.4727 C   0  0  0  0  0  0  0  0  0  0  0  0
  1  3  1  0  0  0  0
  1  5  1  0  0  0  0
  1  6  2  0  0  0  0
  2  5  2  0  0  0  0
  2 11  1  0  0  0  0
  2  4  1  0  0  0  0
  6 10  1  0  0  0  0
  7  8  2  0  0  0  0
  7 12  1  0  0  0  0
  8  9  1  0  0  0  0
  9 10  2  0  0  0  0
 10 11  1  0  0  0  0
 11 12  2  0  0  0  0
M  END
>  <CHROM.1>
3.11650487,15.80673709,3.34472088,-0.57369691,-0.08245411,2.46676128

>  <Name>
ligand

>  <RI>
0

>  <Rbt.Current_Directory>
/home/itssahil/PROJECTS/Mol_Feturizer/Test_systems_manuscript/rnas/4lx5

>  <Rbt.Executable>
rbdock ($Id: //depot/dev/client3/rdock/2013.1/src/exe/rbdock.cxx#4 $)

>  <Rbt.Library>
libRbt.so (2013.1, Build901 2013/11/27)

>  <Rbt.Parameter_File>
/export/apps/rDock/src/rDock_2013.1_src/data/scripts/dock_solv.prm

>  <Rbt.Receptor>
prm/blind_docking_80.prm

>  <SCORE>
-5.95676

>  <SCORE.INTER>
-5.95676

>  <SCORE.INTER.CONST>
1

>  <SCORE.INTER.POLAR>
0

>  <SCORE.INTER.ROT>
0

>  <SCORE.INTER.SOLV>
17.8693

>  <SCORE.INTER.VDW>
-13.5276

>  <SCORE.INTER.norm>
-0.496397

>  <SCORE.INTRA>
0

>  <SCORE.INTRA.DIHEDRAL>
0

>  <SCORE.INTRA.DIHEDRAL.0>
0

>  <SCORE.INTRA.POLAR>
0

>  <SCORE.INTRA.POLAR.0>
0

>  <SCORE.INTRA.REPUL>
0

>  <SCORE.INTRA.REPUL.0>
0

>  <SCORE.INTRA.SOLV>
0

>  <SCORE.INTRA.SOLV.lig_0>
-48.1583

>  <SCORE.INTRA.VDW>
0

>  <SCORE.INTRA.VDW.0>
0

>  <SCORE.INTRA.norm>
0

>  <SCORE.RESTR>
0

>  <SCORE.RESTR.CAVITY>
0

>  <SCORE.RESTR.norm>
0

>  <SCORE.SYSTEM>
0

>  <SCORE.SYSTEM.CONST>
0

>  <SCORE.SYSTEM.DIHEDRAL>
0

>  <SCORE.SYSTEM.SOLV>
0

>  <SCORE.SYSTEM.norm>
0

>  <SCORE.heavy>
12

>  <SCORE.norm>
-0.496397

>  <RMSD>
4.363

$$$$
ligand
 OpenBabel02271912143D
libRbt.so/2013.1/901 2013/11/27
 12 13  0  0  0  0  0  0  0  0999 V2000
    4.7979   15.6648    2.8177 C   0  0  0  0  0  0  0  0  0  0  0  0
    3.6866   14.2824    4.3306 C   0  0  0  0  0  0  0  0  0  0  0  0
    5.9110   15.9675    2.1556 N   0  0  0  0  0  0  0  0  0  0  0  0
    3.6487   13.2638    5.1967 N   0  0  0  0  0  0  0  0  0  0  0  0
    4.8043   14.6193    3.6733 N   0  0  0  0  0  0  0  0  0  0  0  0
    3.6756   16.3872    2.6049 N   0  0  0  0  0  0  0  0  0  0  0  0
    0.1892   15.4444    4.6225 N   0  0  0  0  0  0  0  0  0  0  0  0
    0.2191   16.5202    3.7218 C   0  0  0  0  0  0  0  0  0  0  0  0
    1.4180   16.8413    3.0435 N   0  0  0  0  0  0  0  0  0  0  0  0
    2.5219   16.0925    3.2545 C   0  0  0  0  0  0  0  0  0  0  0  0
    2.5055   15.0101    4.1402 C   0  0  0  0  0  0  0  0  0  0  0  0
    1.3466   14.6696    4.8354 C   0  0  0  0  0  0  0  0  0  0  0  0
  1  3  1  0  0  0  0
  1  5  1  0  0  0  0
  1  6  2  0  0  0  0
  2  5  2  0  0  0  0
  2 11  1  0  0  0  0
  2  4  1  0  0  0  0
  6 10  1  0  0  0  0
  7  8  2  0  0  0  0
  7 12  1  0  0  0  0
  8  9  1  0  0  0  0
  9 10  2  0  0  0  0
 10 11  1  0  0  0  0
 11 12  2  0  0  0  0
M  END
>  <CHROM.1>
2.92291543,15.39875393,3.68817454,0.08688287,0.26652749,-0.68857365

>  <Name>
ligand

>  <RI>
0

>  <Rbt.Current_Directory>
/home/itssahil/PROJECTS/Mol_Feturizer/Test_systems_manuscript/rnas/4lx5

>  <Rbt.Executable>
rbdock ($Id: //depot/dev/client3/rdock/2013.1/src/exe/rbdock.cxx#4 $)

>  <Rbt.Library>
libRbt.so (2013.1, Build901 2013/11/27)

>  <Rbt.Parameter_File>
/export/apps/rDock/src/rDock_2013.1_src/data/scripts/dock_solv.prm

>  <Rbt.Receptor>
prm/blind_docking_20.prm

>  <SCORE>
-6.31237

>  <SCORE.INTER>
-6.31237

>  <SCORE.INTER.CONST>
1

>  <SCORE.INTER.POLAR>
0

>  <SCORE.INTER.ROT>
0

>  <SCORE.INTER.SOLV>
18.7552

>  <SCORE.INTER.VDW>
-14.06

>  <SCORE.INTER.norm>
-0.526031

>  <SCORE.INTRA>
0

>  <SCORE.INTRA.DIHEDRAL>
0

>  <SCORE.INTRA.DIHEDRAL.0>
0

>  <SCORE.INTRA.POLAR>
0

>  <SCORE.INTRA.POLAR.0>
0

>  <SCORE.INTRA.REPUL>
0

>  <SCORE.INTRA.REPUL.0>
0

>  <SCORE.INTRA.SOLV>
0

>  <SCORE.INTRA.SOLV.lig_0>
-48.1583

>  <SCORE.INTRA.VDW>
0

>  <SCORE.INTRA.VDW.0>
0

>  <SCORE.INTRA.norm>
0

>  <SCORE.RESTR>
0

>  <SCORE.RESTR.CAVITY>
0

>  <SCORE.RESTR.norm>
0

>  <SCORE.SYSTEM>
0

>  <SCORE.SYSTEM.CONST>
0

>  <SCORE.SYSTEM.DIHEDRAL>
0

>  <SCORE.SYSTEM.SOLV>
0

>  <SCORE.SYSTEM.norm>
0

>  <SCORE.heavy>
12

>  <SCORE.norm>
-0.526031

>  <RMSD>
4.388

$$$$
ligand
 OpenBabel02271912143D
libRbt.so/2013.1/901 2013/11/27
 12 13  0  0  0  0  0  0  0  0999 V2000
    4.7978   15.6210    2.8203 C   0  0  0  0  0  0  0  0  0  0  0  0
    3.6676   14.2135    4.2955 C   0  0  0  0  0  0  0  0  0  0  0  0
    5.9164   15.9291    2.1702 N   0  0  0  0  0  0  0  0  0  0  0  0
    3.6166   13.1751    5.1370 N   0  0  0  0  0  0  0  0  0  0  0  0
    4.7910   14.5556    3.6509 N   0  0  0  0  0  0  0  0  0  0  0  0
    3.6830   16.3585    2.6201 N   0  0  0  0  0  0  0  0  0  0  0  0
    0.1796   15.4002    4.6005 N   0  0  0  0  0  0  0  0  0  0  0  0
    0.2231   16.4967    3.7257 C   0  0  0  0  0  0  0  0  0  0  0  0
    1.4278   16.8228    3.0601 N   0  0  0  0  0  0  0  0  0  0  0  0
    2.5240   16.0591    3.2579 C   0  0  0  0  0  0  0  0  0  0  0  0
    2.4939   14.9563    4.1176 C   0  0  0  0  0  0  0  0  0  0  0  0
    1.3290   14.6101    4.7997 C   0  0  0  0  0  0  0  0  0  0  0  0
  1  3  1  0  0  0  0
  1  5  1  0  0  0  0
  1  6  2  0  0  0  0
  2  5  2  0  0  0  0
  2 11  1  0  0  0  0
  2  4  1  0  0  0  0
  6 10  1  0  0  0  0
  7  8  2  0  0  0  0
  7 12  1  0  0  0  0
  8  9  1  0  0  0  0
  9 10  2  0  0  0  0
 10 11  1  0  0  0  0
 11 12  2  0  0  0  0
M  END
>  <CHROM.1>
2.91676850,15.35164107,3.67660299,0.07679132,0.26893960,-0.66222612

>  <Name>
ligand

>  <RI>
0

>  <Rbt.Current_Directory>
/home/itssahil/PROJECTS/Mol_Feturizer/Test_systems_manuscript/rnas/4lx5

>  <Rbt.Executable>
rbdock ($Id: //depot/dev/client3/rdock/2013.1/src/exe/rbdock.cxx#4 $)

>  <Rbt.Library>
libRbt.so (2013.1, Build901 2013/11/27)

>  <Rbt.Parameter_File>
/export/apps/rDock/src/rDock_2013.1_src/data/scripts/dock_solv.prm

>  <Rbt.Receptor>
prm/blind_docking_20.prm

>  <SCORE>
-6.32043

>  <SCORE.INTER>
-6.32043

>  <SCORE.INTER.CONST>
1

>  <SCORE.INTER.POLAR>
0

>  <SCORE.INTER.ROT>
0

>  <SCORE.INTER.SOLV>
18.4972

>  <SCORE.INTER.VDW>
-13.9793

>  <SCORE.INTER.norm>
-0.526703

>  <SCORE.INTRA>
0

>  <SCORE.INTRA.DIHEDRAL>
0

>  <SCORE.INTRA.DIHEDRAL.0>
0

>  <SCORE.INTRA.POLAR>
0

>  <SCORE.INTRA.POLAR.0>
0

>  <SCORE.INTRA.REPUL>
0

>  <SCORE.INTRA.REPUL.0>
0

>  <SCORE.INTRA.SOLV>
0

>  <SCORE.INTRA.SOLV.lig_0>
-48.1583

>  <SCORE.INTRA.VDW>
0

>  <SCORE.INTRA.VDW.0>
0

>  <SCORE.INTRA.norm>
0

>  <SCORE.RESTR>
0

>  <SCORE.RESTR.CAVITY>
0

>  <SCORE.RESTR.norm>
0

>  <SCORE.SYSTEM>
0

>  <SCORE.SYSTEM.CONST>
0

>  <SCORE.SYSTEM.DIHEDRAL>
0

>  <SCORE.SYSTEM.SOLV>
0

>  <SCORE.SYSTEM.norm>
0

>  <SCORE.heavy>
12

>  <SCORE.norm>
-0.526703

>  <RMSD>
4.408

$$$$
ligand
 OpenBabel02271912143D
libRbt.so/2013.1/901 2013/11/27
 12 13  0  0  0  0  0  0  0  0999 V2000
    4.7942   15.5921    2.8200 C   0  0  0  0  0  0  0  0  0  0  0  0
    3.6578   14.2237    4.3269 C   0  0  0  0  0  0  0  0  0  0  0  0
    5.9128   15.8778    2.1597 N   0  0  0  0  0  0  0  0  0  0  0  0
    3.6013   13.2025    5.1889 N   0  0  0  0  0  0  0  0  0  0  0  0
    4.7816   14.5433    3.6715 N   0  0  0  0  0  0  0  0  0  0  0  0
    3.6849   16.3350    2.6095 N   0  0  0  0  0  0  0  0  0  0  0  0
    0.1812   15.4460    4.6215 N   0  0  0  0  0  0  0  0  0  0  0  0
    0.2306   16.5247    3.7250 C   0  0  0  0  0  0  0  0  0  0  0  0
    1.4354   16.8273    3.0486 N   0  0  0  0  0  0  0  0  0  0  0  0
    2.5258   16.0582    3.2574 C   0  0  0  0  0  0  0  0  0  0  0  0
    2.4898   14.9729    4.1387 C   0  0  0  0  0  0  0  0  0  0  0  0
    1.3246   14.6502    4.8320 C   0  0  0  0  0  0  0  0  0  0  0  0
  1  3  1  0  0  0  0
  1  5  1  0  0  0  0
  1  6  2  0  0  0  0
  2  5  2  0  0  0  0
  2 11  1  0  0  0  0
  2  4  1  0  0  0  0
  6 10  1  0  0  0  0
  7  8  2  0  0  0  0
  7 12  1  0  0  0  0
  8  9  1  0  0  0  0
  9 10  2  0  0  0  0
 10 11  1  0  0  0  0
 11 12  2  0  0  0  0
M  END
>  <CHROM.1>
2.91423768,15.35582060,3.68846575,0.07231928,0.27725184,-0.68074190

>  <Name>
ligand

>  <RI>
0

>  <Rbt.Current_Directory>
/home/itssahil/PROJECTS/Mol_Feturizer/Test_systems_manuscript/rnas/4lx5

>  <Rbt.Executable>
rbdock ($Id: //depot/dev/client3/rdock/2013.1/src/exe/rbdock.cxx#4 $)

>  <Rbt.Library>
libRbt.so (2013.1, Build901 2013/11/27)

>  <Rbt.Parameter_File>
/export/apps/rDock/src/rDock_2013.1_src/data/scripts/dock_solv.prm

>  <Rbt.Receptor>
prm/blind_docking_20.prm

>  <SCORE>
-6.31469

>  <SCORE.INTER>
-6.31469

>  <SCORE.INTER.CONST>
1

>  <SCORE.INTER.POLAR>
0

>  <SCORE.INTER.ROT>
0

>  <SCORE.INTER.SOLV>
18.8889

>  <SCORE.INTER.VDW>
-14.1061

>  <SCORE.INTER.norm>
-0.526224

>  <SCORE.INTRA>
0

>  <SCORE.INTRA.DIHEDRAL>
0

>  <SCORE.INTRA.DIHEDRAL.0>
0

>  <SCORE.INTRA.POLAR>
0

>  <SCORE.INTRA.POLAR.0>
0

>  <SCORE.INTRA.REPUL>
0

>  <SCORE.INTRA.REPUL.0>
0

>  <SCORE.INTRA.SOLV>
0

>  <SCORE.INTRA.SOLV.lig_0>
-48.1583

>  <SCORE.INTRA.VDW>
0

>  <SCORE.INTRA.VDW.0>
0

>  <SCORE.INTRA.norm>
0

>  <SCORE.RESTR>
0

>  <SCORE.RESTR.CAVITY>
0

>  <SCORE.RESTR.norm>
0

>  <SCORE.SYSTEM>
0

>  <SCORE.SYSTEM.CONST>
0

>  <SCORE.SYSTEM.DIHEDRAL>
0

>  <SCORE.SYSTEM.SOLV>
0

>  <SCORE.SYSTEM.norm>
0

>  <SCORE.heavy>
12

>  <SCORE.norm>
-0.526224

>  <RMSD>
4.408

$$$$
ligand
 OpenBabel02271912143D
libRbt.so/2013.1/901 2013/11/27
 12 13  0  0  0  0  0  0  0  0999 V2000
    4.7882   15.5986    2.8095 C   0  0  0  0  0  0  0  0  0  0  0  0
    3.6638   14.2012    4.2987 C   0  0  0  0  0  0  0  0  0  0  0  0
    5.9048   15.9035    2.1544 N   0  0  0  0  0  0  0  0  0  0  0  0
    3.6167   13.1696    5.1488 N   0  0  0  0  0  0  0  0  0  0  0  0
    4.7852   14.5400    3.6489 N   0  0  0  0  0  0  0  0  0  0  0  0
    3.6716   16.3323    2.6057 N   0  0  0  0  0  0  0  0  0  0  0  0
    0.1742   15.3838    4.6017 N   0  0  0  0  0  0  0  0  0  0  0  0
    0.2138   16.4732    3.7178 C   0  0  0  0  0  0  0  0  0  0  0  0
    1.4164   16.7960    3.0469 N   0  0  0  0  0  0  0  0  0  0  0  0
    2.5145   16.0360    3.2485 C   0  0  0  0  0  0  0  0  0  0  0  0
    2.4884   14.9403    4.1173 C   0  0  0  0  0  0  0  0  0  0  0  0
    1.3256   14.5975    4.8048 C   0  0  0  0  0  0  0  0  0  0  0  0
  1  3  1  0  0  0  0
  1  5  1  0  0  0  0
  1  6  2  0  0  0  0
  2  5  2  0  0  0  0
  2 11  1  0  0  0  0
  2  4  1  0  0  0  0
  6 10  1  0  0  0  0
  7  8  2  0  0  0  0
  7 12  1  0  0  0  0
  8  9  1  0  0  0  0
  9 10  2  0  0  0  0
 10 11  1  0  0  0  0
 11 12  2  0  0  0  0
M  END
>  <CHROM.1>
2.90951849,15.33278220,3.67213978,0.07972763,0.26950787,-0.67122215

>  <Name>
ligand

>  <RI>
0

>  <Rbt.Current_Directory>
/home/itssahil/PROJECTS/Mol_Feturizer/Test_systems_manuscript/rnas/4lx5

>  <Rbt.Executable>
rbdock ($Id: //depot/dev/client3/rdock/2013.1/src/exe/rbdock.cxx#4 $)

>  <Rbt.Library>
libRbt.so (2013.1, Build901 2013/11/27)

>  <Rbt.Parameter_File>
/export/apps/rDock/src/rDock_2013.1_src/data/scripts/dock_solv.prm

>  <Rbt.Receptor>
prm/blind_docking_100.prm

>  <SCORE>
-6.31645

>  <SCORE.INTER>
-6.31645

>  <SCORE.INTER.CONST>
1

>  <SCORE.INTER.POLAR>
0

>  <SCORE.INTER.ROT>
0

>  <SCORE.INTER.SOLV>
18.6467

>  <SCORE.INTER.VDW>
-14.0265

>  <SCORE.INTER.norm>
-0.526371

>  <SCORE.INTRA>
0

>  <SCORE.INTRA.DIHEDRAL>
0

>  <SCORE.INTRA.DIHEDRAL.0>
0

>  <SCORE.INTRA.POLAR>
0

>  <SCORE.INTRA.POLAR.0>
0

>  <SCORE.INTRA.REPUL>
0

>  <SCORE.INTRA.REPUL.0>
0

>  <SCORE.INTRA.SOLV>
0

>  <SCORE.INTRA.SOLV.lig_0>
-48.1583

>  <SCORE.INTRA.VDW>
0

>  <SCORE.INTRA.VDW.0>
0

>  <SCORE.INTRA.norm>
0

>  <SCORE.RESTR>
0

>  <SCORE.RESTR.CAVITY>
0

>  <SCORE.RESTR.norm>
0

>  <SCORE.SYSTEM>
0

>  <SCORE.SYSTEM.CONST>
0

>  <SCORE.SYSTEM.DIHEDRAL>
0

>  <SCORE.SYSTEM.SOLV>
0

>  <SCORE.SYSTEM.norm>
0

>  <SCORE.heavy>
12

>  <SCORE.norm>
-0.526371

>  <RMSD>
4.422

$$$$
ligand
 OpenBabel02271912143D
libRbt.so/2013.1/901 2013/11/27
 12 13  0  0  0  0  0  0  0  0999 V2000
    4.7920   15.5988    2.8215 C   0  0  0  0  0  0  0  0  0  0  0  0
    3.6643   14.2017    4.3084 C   0  0  0  0  0  0  0  0  0  0  0  0
    5.9104   15.9042    2.1697 N   0  0  0  0  0  0  0  0  0  0  0  0
    3.6154   13.1710    5.1594 N   0  0  0  0  0  0  0  0  0  0  0  0
    4.7874   14.5411    3.6619 N   0  0  0  0  0  0  0  0  0  0  0  0
    3.6753   16.3311    2.6133 N   0  0  0  0  0  0  0  0  0  0  0  0
    0.1725   15.3809    4.5988 N   0  0  0  0  0  0  0  0  0  0  0  0
    0.2138   16.4694    3.7139 C   0  0  0  0  0  0  0  0  0  0  0  0
    1.4183   16.7929    3.0466 N   0  0  0  0  0  0  0  0  0  0  0  0
    2.5164   16.0342    3.2526 C   0  0  0  0  0  0  0  0  0  0  0  0
    2.4886   14.9394    4.1223 C   0  0  0  0  0  0  0  0  0  0  0  0
    1.3240   14.5961    4.8065 C   0  0  0  0  0  0  0  0  0  0  0  0
  1  3  1  0  0  0  0
  1  5  1  0  0  0  0
  1  6  2  0  0  0  0
  2  5  2  0  0  0  0
  2 11  1  0  0  0  0
  2  4  1  0  0  0  0
  6 10  1  0  0  0  0
  7  8  2  0  0  0  0
  7 12  1  0  0  0  0
  8  9  1  0  0  0  0
  9 10  2  0  0  0  0
 10 11  1  0  0  0  0
 11 12  2  0  0  0  0
M  END
>  <CHROM.1>
2.91081967,15.33186542,3.67820469,0.07847855,0.26629371,-0.67191034

>  <Name>
ligand

>  <RI>
0

>  <Rbt.Current_Directory>
/home/itssahil/PROJECTS/Mol_Feturizer/Test_systems_manuscript/rnas/4lx5

>  <Rbt.Executable>
rbdock ($Id: //depot/dev/client3/rdock/2013.1/src/exe/rbdock.cxx#4 $)

>  <Rbt.Library>
libRbt.so (2013.1, Build901 2013/11/27)

>  <Rbt.Parameter_File>
/export/apps/rDock/src/rDock_2013.1_src/data/scripts/dock_solv.prm

>  <Rbt.Receptor>
prm/blind_docking_20.prm

>  <SCORE>
-6.31706

>  <SCORE.INTER>
-6.31706

>  <SCORE.INTER.CONST>
1

>  <SCORE.INTER.POLAR>
0

>  <SCORE.INTER.ROT>
0

>  <SCORE.INTER.SOLV>
18.6607

>  <SCORE.INTER.VDW>
-14.0316

>  <SCORE.INTER.norm>
-0.526422

>  <SCORE.INTRA>
0

>  <SCORE.INTRA.DIHEDRAL>
0

>  <SCORE.INTRA.DIHEDRAL.0>
0

>  <SCORE.INTRA.POLAR>
0

>  <SCORE.INTRA.POLAR.0>
0

>  <SCORE.INTRA.REPUL>
0

>  <SCORE.INTRA.REPUL.0>
0

>  <SCORE.INTRA.SOLV>
0

>  <SCORE.INTRA.SOLV.lig_0>
-48.1583

>  <SCORE.INTRA.VDW>
0

>  <SCORE.INTRA.VDW.0>
0

>  <SCORE.INTRA.norm>
0

>  <SCORE.RESTR>
0

>  <SCORE.RESTR.CAVITY>
0

>  <SCORE.RESTR.norm>
0

>  <SCORE.SYSTEM>
0

>  <SCORE.SYSTEM.CONST>
0

>  <SCORE.SYSTEM.DIHEDRAL>
0

>  <SCORE.SYSTEM.SOLV>
0

>  <SCORE.SYSTEM.norm>
0

>  <SCORE.heavy>
12

>  <SCORE.norm>
-0.526422

>  <RMSD>
4.424

$$$$
ligand
 OpenBabel02271912143D
libRbt.so/2013.1/901 2013/11/27
 12 13  0  0  0  0  0  0  0  0999 V2000
    4.7843   15.6034    2.8208 C   0  0  0  0  0  0  0  0  0  0  0  0
    3.6621   14.2050    4.3109 C   0  0  0  0  0  0  0  0  0  0  0  0
    5.9007   15.9103    2.1664 N   0  0  0  0  0  0  0  0  0  0  0  0
    3.6169   13.1747    5.1626 N   0  0  0  0  0  0  0  0  0  0  0  0
    4.7833   14.5460    3.6617 N   0  0  0  0  0  0  0  0  0  0  0  0
    3.6659   16.3337    2.6148 N   0  0  0  0  0  0  0  0  0  0  0  0
    0.1691   15.3787    4.6085 N   0  0  0  0  0  0  0  0  0  0  0  0
    0.2066   16.4668    3.7230 C   0  0  0  0  0  0  0  0  0  0  0  0
    1.4090   16.7919    3.0529 N   0  0  0  0  0  0  0  0  0  0  0  0
    2.5089   16.0352    3.2568 C   0  0  0  0  0  0  0  0  0  0  0  0
    2.4849   14.9407    4.1272 C   0  0  0  0  0  0  0  0  0  0  0  0
    1.3223   14.5958    4.8140 C   0  0  0  0  0  0  0  0  0  0  0  0
  1  3  1  0  0  0  0
  1  5  1  0  0  0  0
  1  6  2  0  0  0  0
  2  5  2  0  0  0  0
  2 11  1  0  0  0  0
  2  4  1  0  0  0  0
  6 10  1  0  0  0  0
  7  8  2  0  0  0  0
  7 12  1  0  0  0  0
  8  9  1  0  0  0  0
  9 10  2  0  0  0  0
 10 11  1  0  0  0  0
 11 12  2  0  0  0  0
M  END
>  <CHROM.1>
2.90541445,15.33368918,3.68188288,0.08126334,0.26700910,-0.67312600

>  <Name>
ligand

>  <RI>
0

>  <Rbt.Current_Directory>
/home/itssahil/PROJECTS/Mol_Feturizer/Test_systems_manuscript/rnas/4lx5

>  <Rbt.Executable>
rbdock ($Id: //depot/dev/client3/rdock/2013.1/src/exe/rbdock.cxx#4 $)

>  <Rbt.Library>
libRbt.so (2013.1, Build901 2013/11/27)

>  <Rbt.Parameter_File>
/export/apps/rDock/src/rDock_2013.1_src/data/scripts/dock_solv.prm

>  <Rbt.Receptor>
prm/blind_docking_100.prm

>  <SCORE>
-6.31407

>  <SCORE.INTER>
-6.31407

>  <SCORE.INTER.CONST>
1

>  <SCORE.INTER.POLAR>
0

>  <SCORE.INTER.ROT>
0

>  <SCORE.INTER.SOLV>
18.6394

>  <SCORE.INTER.VDW>
-14.0225

>  <SCORE.INTER.norm>
-0.526172

>  <SCORE.INTRA>
0

>  <SCORE.INTRA.DIHEDRAL>
0

>  <SCORE.INTRA.DIHEDRAL.0>
0

>  <SCORE.INTRA.POLAR>
0

>  <SCORE.INTRA.POLAR.0>
0

>  <SCORE.INTRA.REPUL>
0

>  <SCORE.INTRA.REPUL.0>
0

>  <SCORE.INTRA.SOLV>
0

>  <SCORE.INTRA.SOLV.lig_0>
-48.1583

>  <SCORE.INTRA.VDW>
0

>  <SCORE.INTRA.VDW.0>
0

>  <SCORE.INTRA.norm>
0

>  <SCORE.RESTR>
0

>  <SCORE.RESTR.CAVITY>
0

>  <SCORE.RESTR.norm>
0

>  <SCORE.SYSTEM>
0

>  <SCORE.SYSTEM.CONST>
0

>  <SCORE.SYSTEM.DIHEDRAL>
0

>  <SCORE.SYSTEM.SOLV>
0

>  <SCORE.SYSTEM.norm>
0

>  <SCORE.heavy>
12

>  <SCORE.norm>
-0.526172

>  <RMSD>
4.427

$$$$
ligand
 OpenBabel02271912143D
libRbt.so/2013.1/901 2013/11/27
 12 13  0  0  0  0  0  0  0  0999 V2000
    4.7815   15.5956    2.8152 C   0  0  0  0  0  0  0  0  0  0  0  0
    3.6604   14.2008    4.3094 C   0  0  0  0  0  0  0  0  0  0  0  0
    5.8970   15.8999    2.1580 N   0  0  0  0  0  0  0  0  0  0  0  0
    3.6154   13.1716    5.1624 N   0  0  0  0  0  0  0  0  0  0  0  0
    4.7807   14.5392    3.6574 N   0  0  0  0  0  0  0  0  0  0  0  0
    3.6638   16.3274    2.6106 N   0  0  0  0  0  0  0  0  0  0  0  0
    0.1698   15.3802    4.6130 N   0  0  0  0  0  0  0  0  0  0  0  0
    0.2071   16.4672    3.7261 C   0  0  0  0  0  0  0  0  0  0  0  0
    1.4086   16.7896    3.0530 N   0  0  0  0  0  0  0  0  0  0  0  0
    2.5077   16.0315    3.2555 C   0  0  0  0  0  0  0  0  0  0  0  0
    2.4839   14.9381    4.1273 C   0  0  0  0  0  0  0  0  0  0  0  0
    1.3223   14.5958    4.8171 C   0  0  0  0  0  0  0  0  0  0  0  0
  1  3  1  0  0  0  0
  1  5  1  0  0  0  0
  1  6  2  0  0  0  0
  2  5  2  0  0  0  0
  2 11  1  0  0  0  0
  2  4  1  0  0  0  0
  6 10  1  0  0  0  0
  7  8  2  0  0  0  0
  7 12  1  0  0  0  0
  8  9  1  0  0  0  0
  9 10  2  0  0  0  0
 10 11  1  0  0  0  0
 11 12  2  0  0  0  0
M  END
>  <CHROM.1>
2.90408252,15.32985561,3.68060305,0.08139958,0.26964309,-0.67440057

>  <Name>
ligand

>  <RI>
0

>  <Rbt.Current_Directory>
/home/itssahil/PROJECTS/Mol_Feturizer/Test_systems_manuscript/rnas/4lx5

>  <Rbt.Executable>
rbdock ($Id: //depot/dev/client3/rdock/2013.1/src/exe/rbdock.cxx#4 $)

>  <Rbt.Library>
libRbt.so (2013.1, Build901 2013/11/27)

>  <Rbt.Parameter_File>
/export/apps/rDock/src/rDock_2013.1_src/data/scripts/dock_solv.prm

>  <Rbt.Receptor>
prm/blind_docking_20.prm

>  <SCORE>
-6.31536

>  <SCORE.INTER>
-6.31536

>  <SCORE.INTER.CONST>
1

>  <SCORE.INTER.POLAR>
0

>  <SCORE.INTER.ROT>
0

>  <SCORE.INTER.SOLV>
18.6802

>  <SCORE.INTER.VDW>
-14.037

>  <SCORE.INTER.norm>
-0.52628

>  <SCORE.INTRA>
0

>  <SCORE.INTRA.DIHEDRAL>
0

>  <SCORE.INTRA.DIHEDRAL.0>
0

>  <SCORE.INTRA.POLAR>
0

>  <SCORE.INTRA.POLAR.0>
0

>  <SCORE.INTRA.REPUL>
0

>  <SCORE.INTRA.REPUL.0>
0

>  <SCORE.INTRA.SOLV>
0

>  <SCORE.INTRA.SOLV.lig_0>
-48.1583

>  <SCORE.INTRA.VDW>
0

>  <SCORE.INTRA.VDW.0>
0

>  <SCORE.INTRA.norm>
0

>  <SCORE.RESTR>
0

>  <SCORE.RESTR.CAVITY>
0

>  <SCORE.RESTR.norm>
0

>  <SCORE.SYSTEM>
0

>  <SCORE.SYSTEM.CONST>
0

>  <SCORE.SYSTEM.DIHEDRAL>
0

>  <SCORE.SYSTEM.SOLV>
0

>  <SCORE.SYSTEM.norm>
0

>  <SCORE.heavy>
12

>  <SCORE.norm>
-0.52628

>  <RMSD>
4.428

$$$$
ligand
 OpenBabel02271912143D
libRbt.so/2013.1/901 2013/11/27
 12 13  0  0  0  0  0  0  0  0999 V2000
    4.7903   15.5776    2.8365 C   0  0  0  0  0  0  0  0  0  0  0  0
    3.6379   14.1739    4.2982 C   0  0  0  0  0  0  0  0  0  0  0  0
    5.9152   15.8774    2.1934 N   0  0  0  0  0  0  0  0  0  0  0  0
    3.5718   13.1313    5.1334 N   0  0  0  0  0  0  0  0  0  0  0  0
    4.7681   14.5075    3.6608 N   0  0  0  0  0  0  0  0  0  0  0  0
    3.6845   16.3283    2.6354 N   0  0  0  0  0  0  0  0  0  0  0  0
    0.1615   15.3965    4.5939 N   0  0  0  0  0  0  0  0  0  0  0  0
    0.2211   16.4975    3.7257 C   0  0  0  0  0  0  0  0  0  0  0  0
    1.4323   16.8144    3.0676 N   0  0  0  0  0  0  0  0  0  0  0  0
    2.5192   16.0377    3.2660 C   0  0  0  0  0  0  0  0  0  0  0  0
    2.4732   14.9304    4.1191 C   0  0  0  0  0  0  0  0  0  0  0  0
    1.3014   14.5929    4.7938 C   0  0  0  0  0  0  0  0  0  0  0  0
  1  3  1  0  0  0  0
  1  5  1  0  0  0  0
  1  6  2  0  0  0  0
  2  5  2  0  0  0  0
  2 11  1  0  0  0  0
  2  4  1  0  0  0  0
  6 10  1  0  0  0  0
  7  8  2  0  0  0  0
  7 12  1  0  0  0  0
  8  9  1  0  0  0  0
  9 10  2  0  0  0  0
 10 11  1  0  0  0  0
 11 12  2  0  0  0  0
M  END
>  <CHROM.1>
2.90239206,15.32368231,3.68243121,0.06493819,0.27185044,-0.65325491

>  <Name>
ligand

>  <RI>
0

>  <Rbt.Current_Directory>
/home/itssahil/PROJECTS/Mol_Feturizer/Test_systems_manuscript/rnas/4lx5

>  <Rbt.Executable>
rbdock ($Id: //depot/dev/client3/rdock/2013.1/src/exe/rbdock.cxx#4 $)

>  <Rbt.Library>
libRbt.so (2013.1, Build901 2013/11/27)

>  <Rbt.Parameter_File>
/export/apps/rDock/src/rDock_2013.1_src/data/scripts/dock_solv.prm

>  <Rbt.Receptor>
prm/blind_docking_20.prm

>  <SCORE>
-6.30521

>  <SCORE.INTER>
-6.30521

>  <SCORE.INTER.CONST>
1

>  <SCORE.INTER.POLAR>
0

>  <SCORE.INTER.ROT>
0

>  <SCORE.INTER.SOLV>
18.4355

>  <SCORE.INTER.VDW>
-13.9486

>  <SCORE.INTER.norm>
-0.525434

>  <SCORE.INTRA>
0

>  <SCORE.INTRA.DIHEDRAL>
0

>  <SCORE.INTRA.DIHEDRAL.0>
0

>  <SCORE.INTRA.POLAR>
0

>  <SCORE.INTRA.POLAR.0>
0

>  <SCORE.INTRA.REPUL>
0

>  <SCORE.INTRA.REPUL.0>
0

>  <SCORE.INTRA.SOLV>
0

>  <SCORE.INTRA.SOLV.lig_0>
-48.1583

>  <SCORE.INTRA.VDW>
0

>  <SCORE.INTRA.VDW.0>
0

>  <SCORE.INTRA.norm>
0

>  <SCORE.RESTR>
0

>  <SCORE.RESTR.CAVITY>
0

>  <SCORE.RESTR.norm>
0

>  <SCORE.SYSTEM>
0

>  <SCORE.SYSTEM.CONST>
0

>  <SCORE.SYSTEM.DIHEDRAL>
0

>  <SCORE.SYSTEM.SOLV>
0

>  <SCORE.SYSTEM.norm>
0

>  <SCORE.heavy>
12

>  <SCORE.norm>
-0.525434

>  <RMSD>
4.429

$$$$
ligand
 OpenBabel02271912143D
libRbt.so/2013.1/901 2013/11/27
 12 13  0  0  0  0  0  0  0  0999 V2000
    4.7932   15.5893    2.8370 C   0  0  0  0  0  0  0  0  0  0  0  0
    3.6634   14.1987    4.3286 C   0  0  0  0  0  0  0  0  0  0  0  0
    5.9127   15.8920    2.1858 N   0  0  0  0  0  0  0  0  0  0  0  0
    3.6135   13.1720    5.1843 N   0  0  0  0  0  0  0  0  0  0  0  0
    4.7876   14.5355    3.6824 N   0  0  0  0  0  0  0  0  0  0  0  0
    3.6766   16.3202    2.6235 N   0  0  0  0  0  0  0  0  0  0  0  0
    0.1707   15.3780    4.6073 N   0  0  0  0  0  0  0  0  0  0  0  0
    0.2131   16.4624    3.7174 C   0  0  0  0  0  0  0  0  0  0  0  0
    1.4186   16.7831    3.0506 N   0  0  0  0  0  0  0  0  0  0  0  0
    2.5167   16.0259    3.2621 C   0  0  0  0  0  0  0  0  0  0  0  0
    2.4878   14.9351    4.1370 C   0  0  0  0  0  0  0  0  0  0  0  0
    1.3221   14.5946    4.8207 C   0  0  0  0  0  0  0  0  0  0  0  0
  1  3  1  0  0  0  0
  1  5  1  0  0  0  0
  1  6  2  0  0  0  0
  2  5  2  0  0  0  0
  2 11  1  0  0  0  0
  2  4  1  0  0  0  0
  6 10  1  0  0  0  0
  7  8  2  0  0  0  0
  7 12  1  0  0  0  0
  8  9  1  0  0  0  0
  9 10  2  0  0  0  0
 10 11  1  0  0  0  0
 11 12  2  0  0  0  0
M  END
>  <CHROM.1>
2.91063548,15.32566588,3.69175102,0.07766295,0.26470185,-0.67640005

>  <Name>
ligand

>  <RI>
0

>  <Rbt.Current_Directory>
/home/itssahil/PROJECTS/Mol_Feturizer/Test_systems_manuscript/rnas/4lx5

>  <Rbt.Executable>
rbdock ($Id: //depot/dev/client3/rdock/2013.1/src/exe/rbdock.cxx#4 $)

>  <Rbt.Library>
libRbt.so (2013.1, Build901 2013/11/27)

>  <Rbt.Parameter_File>
/export/apps/rDock/src/rDock_2013.1_src/data/scripts/dock_solv.prm

>  <Rbt.Receptor>
prm/blind_docking_20.prm

>  <SCORE>
-6.31427

>  <SCORE.INTER>
-6.31427

>  <SCORE.INTER.CONST>
1

>  <SCORE.INTER.POLAR>
0

>  <SCORE.INTER.ROT>
0

>  <SCORE.INTER.SOLV>
18.764

>  <SCORE.INTER.VDW>
-14.0642

>  <SCORE.INTER.norm>
-0.526189

>  <SCORE.INTRA>
0

>  <SCORE.INTRA.DIHEDRAL>
0

>  <SCORE.INTRA.DIHEDRAL.0>
0

>  <SCORE.INTRA.POLAR>
0

>  <SCORE.INTRA.POLAR.0>
0

>  <SCORE.INTRA.REPUL>
0

>  <SCORE.INTRA.REPUL.0>
0

>  <SCORE.INTRA.SOLV>
0

>  <SCORE.INTRA.SOLV.lig_0>
-48.1583

>  <SCORE.INTRA.VDW>
0

>  <SCORE.INTRA.VDW.0>
0

>  <SCORE.INTRA.norm>
0

>  <SCORE.RESTR>
0

>  <SCORE.RESTR.CAVITY>
0

>  <SCORE.RESTR.norm>
0

>  <SCORE.SYSTEM>
0

>  <SCORE.SYSTEM.CONST>
0

>  <SCORE.SYSTEM.DIHEDRAL>
0

>  <SCORE.SYSTEM.SOLV>
0

>  <SCORE.SYSTEM.norm>
0

>  <SCORE.heavy>
12

>  <SCORE.norm>
-0.526189

>  <RMSD>
4.431

$$$$
ligand
 OpenBabel02271912143D
libRbt.so/2013.1/901 2013/11/27
 12 13  0  0  0  0  0  0  0  0999 V2000
    4.7478   15.6024    2.8048 C   0  0  0  0  0  0  0  0  0  0  0  0
    3.6621   14.1831    4.3021 C   0  0  0  0  0  0  0  0  0  0  0  0
    5.8500   15.9224    2.1328 N   0  0  0  0  0  0  0  0  0  0  0  0
    3.6391   13.1444    5.1446 N   0  0  0  0  0  0  0  0  0  0  0  0
    4.7689   14.5371    3.6355 N   0  0  0  0  0  0  0  0  0  0  0  0
    3.6213   16.3276    2.6265 N   0  0  0  0  0  0  0  0  0  0  0  0
    0.1681   15.3318    4.6755 N   0  0  0  0  0  0  0  0  0  0  0  0
    0.1825   16.4285    3.7999 C   0  0  0  0  0  0  0  0  0  0  0  0
    1.3703   16.7675    3.1107 N   0  0  0  0  0  0  0  0  0  0  0  0
    2.4783   16.0158    3.2870 C   0  0  0  0  0  0  0  0  0  0  0  0
    2.4772   14.9130    4.1472 C   0  0  0  0  0  0  0  0  0  0  0  0
    1.3297   14.5543    4.8522 C   0  0  0  0  0  0  0  0  0  0  0  0
  1  3  1  0  0  0  0
  1  5  1  0  0  0  0
  1  6  2  0  0  0  0
  2  5  2  0  0  0  0
  2 11  1  0  0  0  0
  2  4  1  0  0  0  0
  6 10  1  0  0  0  0
  7  8  2  0  0  0  0
  7 12  1  0  0  0  0
  8  9  1  0  0  0  0
  9 10  2  0  0  0  0
 10 11  1  0  0  0  0
 11 12  2  0  0  0  0
M  END
>  <CHROM.1>
2.88697559,15.31279233,3.69796748,0.09828271,0.27768879,-0.66823094

>  <Name>
ligand

>  <RI>
0

>  <Rbt.Current_Directory>
/home/itssahil/PROJECTS/Mol_Feturizer/Test_systems_manuscript/rnas/4lx5

>  <Rbt.Executable>
rbdock ($Id: //depot/dev/client3/rdock/2013.1/src/exe/rbdock.cxx#4 $)

>  <Rbt.Library>
libRbt.so (2013.1, Build901 2013/11/27)

>  <Rbt.Parameter_File>
/export/apps/rDock/src/rDock_2013.1_src/data/scripts/dock_solv.prm

>  <Rbt.Receptor>
prm/blind_docking_20.prm

>  <SCORE>
-6.35137

>  <SCORE.INTER>
-6.35137

>  <SCORE.INTER.CONST>
1

>  <SCORE.INTER.POLAR>
0

>  <SCORE.INTER.ROT>
0

>  <SCORE.INTER.SOLV>
18.5223

>  <SCORE.INTER.VDW>
-14.0083

>  <SCORE.INTER.norm>
-0.529281

>  <SCORE.INTRA>
0

>  <SCORE.INTRA.DIHEDRAL>
0

>  <SCORE.INTRA.DIHEDRAL.0>
0

>  <SCORE.INTRA.POLAR>
0

>  <SCORE.INTRA.POLAR.0>
0

>  <SCORE.INTRA.REPUL>
0

>  <SCORE.INTRA.REPUL.0>
0

>  <SCORE.INTRA.SOLV>
0

>  <SCORE.INTRA.SOLV.lig_0>
-48.1583

>  <SCORE.INTRA.VDW>
0

>  <SCORE.INTRA.VDW.0>
0

>  <SCORE.INTRA.norm>
0

>  <SCORE.RESTR>
0

>  <SCORE.RESTR.CAVITY>
0

>  <SCORE.RESTR.norm>
0

>  <SCORE.SYSTEM>
0

>  <SCORE.SYSTEM.CONST>
0

>  <SCORE.SYSTEM.DIHEDRAL>
0

>  <SCORE.SYSTEM.SOLV>
0

>  <SCORE.SYSTEM.norm>
0

>  <SCORE.heavy>
12

>  <SCORE.norm>
-0.529281

>  <RMSD>
4.442

$$$$
ligand
 OpenBabel02271912143D
libRbt.so/2013.1/901 2013/11/27
 12 13  0  0  0  0  0  0  0  0999 V2000
    2.5890   13.1375    4.3934 C   0  0  0  0  0  0  0  0  0  0  0  0
    1.9123   15.2281    3.6145 C   0  0  0  0  0  0  0  0  0  0  0  0
    2.2716   11.9680    4.9414 N   0  0  0  0  0  0  0  0  0  0  0  0
    0.9869   16.1704    3.4034 N   0  0  0  0  0  0  0  0  0  0  0  0
    1.6177   14.0539    4.1884 N   0  0  0  0  0  0  0  0  0  0  0  0
    3.8671   13.3795    4.0268 N   0  0  0  0  0  0  0  0  0  0  0  0
    4.8759   16.9942    2.2857 N   0  0  0  0  0  0  0  0  0  0  0  0
    5.8569   16.0159    2.5093 C   0  0  0  0  0  0  0  0  0  0  0  0
    5.5048   14.7866    3.1139 N   0  0  0  0  0  0  0  0  0  0  0  0
    4.2176   14.5572    3.4522 C   0  0  0  0  0  0  0  0  0  0  0  0
    3.2261   15.5172    3.2256 C   0  0  0  0  0  0  0  0  0  0  0  0
    3.5359   16.7446    2.6426 C   0  0  0  0  0  0  0  0  0  0  0  0
  1  3  1  0  0  0  0
  1  5  1  0  0  0  0
  1  6  2  0  0  0  0
  2  5  2  0  0  0  0
  2 11  1  0  0  0  0
  2  4  1  0  0  0  0
  6 10  1  0  0  0  0
  7  8  2  0  0  0  0
  7 12  1  0  0  0  0
  8  9  1  0  0  0  0
  9 10  2  0  0  0  0
 10 11  1  0  0  0  0
 11 12  2  0  0  0  0
M  END
>  <CHROM.1>
3.35766596,14.85481794,3.49667257,-2.24134156,0.17810890,-0.40527819

>  <Name>
ligand

>  <RI>
0

>  <Rbt.Current_Directory>
/home/itssahil/PROJECTS/Mol_Feturizer/Test_systems_manuscript/rnas/4lx5

>  <Rbt.Executable>
rbdock ($Id: //depot/dev/client3/rdock/2013.1/src/exe/rbdock.cxx#4 $)

>  <Rbt.Library>
libRbt.so (2013.1, Build901 2013/11/27)

>  <Rbt.Parameter_File>
/export/apps/rDock/src/rDock_2013.1_src/data/scripts/dock_solv.prm

>  <Rbt.Receptor>
prm/blind_docking_20.prm

>  <SCORE>
-6.79526

>  <SCORE.INTER>
-6.79526

>  <SCORE.INTER.CONST>
1

>  <SCORE.INTER.POLAR>
0

>  <SCORE.INTER.ROT>
0

>  <SCORE.INTER.SOLV>
11.5784

>  <SCORE.INTER.VDW>
-11.9897

>  <SCORE.INTER.norm>
-0.566271

>  <SCORE.INTRA>
0

>  <SCORE.INTRA.DIHEDRAL>
0

>  <SCORE.INTRA.DIHEDRAL.0>
0

>  <SCORE.INTRA.POLAR>
0

>  <SCORE.INTRA.POLAR.0>
0

>  <SCORE.INTRA.REPUL>
0

>  <SCORE.INTRA.REPUL.0>
0

>  <SCORE.INTRA.SOLV>
0

>  <SCORE.INTRA.SOLV.lig_0>
-48.1583

>  <SCORE.INTRA.VDW>
0

>  <SCORE.INTRA.VDW.0>
0

>  <SCORE.INTRA.norm>
0

>  <SCORE.RESTR>
0

>  <SCORE.RESTR.CAVITY>
0

>  <SCORE.RESTR.norm>
0

>  <SCORE.SYSTEM>
0

>  <SCORE.SYSTEM.CONST>
0

>  <SCORE.SYSTEM.DIHEDRAL>
0

>  <SCORE.SYSTEM.SOLV>
0

>  <SCORE.SYSTEM.norm>
0

>  <SCORE.heavy>
12

>  <SCORE.norm>
-0.566271

>  <RMSD>
5.127

$$$$
ligand
 OpenBabel02271912143D
libRbt.so/2013.1/901 2013/11/27
 12 13  0  0  0  0  0  0  0  0999 V2000
    2.5895   13.1331    4.3994 C   0  0  0  0  0  0  0  0  0  0  0  0
    1.9127   15.2230    3.6188 C   0  0  0  0  0  0  0  0  0  0  0  0
    2.2722   11.9640    4.9484 N   0  0  0  0  0  0  0  0  0  0  0  0
    0.9871   16.1651    3.4071 N   0  0  0  0  0  0  0  0  0  0  0  0
    1.6182   14.0494    4.1937 N   0  0  0  0  0  0  0  0  0  0  0  0
    3.8676   13.3748    4.0322 N   0  0  0  0  0  0  0  0  0  0  0  0
    4.8759   16.9881    2.2880 N   0  0  0  0  0  0  0  0  0  0  0  0
    5.8570   16.0100    2.5122 C   0  0  0  0  0  0  0  0  0  0  0  0
    5.5050   14.7812    3.1178 N   0  0  0  0  0  0  0  0  0  0  0  0
    4.2179   14.5520    3.4566 C   0  0  0  0  0  0  0  0  0  0  0  0
    3.2264   15.5119    3.2294 C   0  0  0  0  0  0  0  0  0  0  0  0
    3.5360   16.7387    2.6453 C   0  0  0  0  0  0  0  0  0  0  0  0
  1  3  1  0  0  0  0
  1  5  1  0  0  0  0
  1  6  2  0  0  0  0
  2  5  2  0  0  0  0
  2 11  1  0  0  0  0
  2  4  1  0  0  0  0
  6 10  1  0  0  0  0
  7  8  2  0  0  0  0
  7 12  1  0  0  0  0
  8  9  1  0  0  0  0
  9 10  2  0  0  0  0
 10 11  1  0  0  0  0
 11 12  2  0  0  0  0
M  END
>  <CHROM.1>
3.35797725,14.84969208,3.50100745,-2.24124143,0.17827814,-0.40614231

>  <Name>
ligand

>  <RI>
0

>  <Rbt.Current_Directory>
/home/itssahil/PROJECTS/Mol_Feturizer/Test_systems_manuscript/rnas/4lx5

>  <Rbt.Executable>
rbdock ($Id: //depot/dev/client3/rdock/2013.1/src/exe/rbdock.cxx#4 $)

>  <Rbt.Library>
libRbt.so (2013.1, Build901 2013/11/27)

>  <Rbt.Parameter_File>
/export/apps/rDock/src/rDock_2013.1_src/data/scripts/dock_solv.prm

>  <Rbt.Receptor>
prm/blind_docking_20.prm

>  <SCORE>
-6.79567

>  <SCORE.INTER>
-6.79567

>  <SCORE.INTER.CONST>
1

>  <SCORE.INTER.POLAR>
0

>  <SCORE.INTER.ROT>
0

>  <SCORE.INTER.SOLV>
11.5811

>  <SCORE.INTER.VDW>
-11.9908

>  <SCORE.INTER.norm>
-0.566306

>  <SCORE.INTRA>
0

>  <SCORE.INTRA.DIHEDRAL>
0

>  <SCORE.INTRA.DIHEDRAL.0>
0

>  <SCORE.INTRA.POLAR>
0

>  <SCORE.INTRA.POLAR.0>
0

>  <SCORE.INTRA.REPUL>
0

>  <SCORE.INTRA.REPUL.0>
0

>  <SCORE.INTRA.SOLV>
0

>  <SCORE.INTRA.SOLV.lig_0>
-48.1583

>  <SCORE.INTRA.VDW>
0

>  <SCORE.INTRA.VDW.0>
0

>  <SCORE.INTRA.norm>
0

>  <SCORE.RESTR>
0

>  <SCORE.RESTR.CAVITY>
0

>  <SCORE.RESTR.norm>
0

>  <SCORE.SYSTEM>
0

>  <SCORE.SYSTEM.CONST>
0

>  <SCORE.SYSTEM.DIHEDRAL>
0

>  <SCORE.SYSTEM.SOLV>
0

>  <SCORE.SYSTEM.norm>
0

>  <SCORE.heavy>
12

>  <SCORE.norm>
-0.566306

>  <RMSD>
5.130

$$$$
ligand
 OpenBabel02271912143D
libRbt.so/2013.1/901 2013/11/27
 12 13  0  0  0  0  0  0  0  0999 V2000
    2.5960   13.1350    4.4049 C   0  0  0  0  0  0  0  0  0  0  0  0
    1.8929   15.2343    3.6746 C   0  0  0  0  0  0  0  0  0  0  0  0
    2.2961   11.9556    4.9416 N   0  0  0  0  0  0  0  0  0  0  0  0
    0.9589   16.1756    3.4995 N   0  0  0  0  0  0  0  0  0  0  0  0
    1.6165   14.0501    4.2365 N   0  0  0  0  0  0  0  0  0  0  0  0
    3.8644   13.3885    4.0130 N   0  0  0  0  0  0  0  0  0  0  0  0
    4.8178   17.0345    2.3063 N   0  0  0  0  0  0  0  0  0  0  0  0
    5.8078   16.0572    2.4921 C   0  0  0  0  0  0  0  0  0  0  0  0
    5.4748   14.8171    3.0851 N   0  0  0  0  0  0  0  0  0  0  0  0
    4.1967   14.5766    3.4491 C   0  0  0  0  0  0  0  0  0  0  0  0
    3.1962   15.5355    3.2603 C   0  0  0  0  0  0  0  0  0  0  0  0
    3.4875   16.7732    2.6898 C   0  0  0  0  0  0  0  0  0  0  0  0
  1  3  1  0  0  0  0
  1  5  1  0  0  0  0
  1  6  2  0  0  0  0
  2  5  2  0  0  0  0
  2 11  1  0  0  0  0
  2  4  1  0  0  0  0
  6 10  1  0  0  0  0
  7  8  2  0  0  0  0
  7 12  1  0  0  0  0
  8  9  1  0  0  0  0
  9 10  2  0  0  0  0
 10 11  1  0  0  0  0
 11 12  2  0  0  0  0
M  END
>  <CHROM.1>
3.33672941,14.86955578,3.51790268,-2.22819938,0.19750046,-0.39208335

>  <Name>
ligand

>  <RI>
0

>  <Rbt.Current_Directory>
/home/itssahil/PROJECTS/Mol_Feturizer/Test_systems_manuscript/rnas/4lx5

>  <Rbt.Executable>
rbdock ($Id: //depot/dev/client3/rdock/2013.1/src/exe/rbdock.cxx#4 $)

>  <Rbt.Library>
libRbt.so (2013.1, Build901 2013/11/27)

>  <Rbt.Parameter_File>
/export/apps/rDock/src/rDock_2013.1_src/data/scripts/dock_solv.prm

>  <Rbt.Receptor>
prm/pocket_docking_8.prm

>  <SCORE>
-6.73125

>  <SCORE.INTER>
-6.73125

>  <SCORE.INTER.CONST>
1

>  <SCORE.INTER.POLAR>
0

>  <SCORE.INTER.ROT>
0

>  <SCORE.INTER.SOLV>
11.6637

>  <SCORE.INTER.VDW>
-11.9754

>  <SCORE.INTER.norm>
-0.560938

>  <SCORE.INTRA>
0

>  <SCORE.INTRA.DIHEDRAL>
0

>  <SCORE.INTRA.DIHEDRAL.0>
0

>  <SCORE.INTRA.POLAR>
0

>  <SCORE.INTRA.POLAR.0>
0

>  <SCORE.INTRA.REPUL>
0

>  <SCORE.INTRA.REPUL.0>
0

>  <SCORE.INTRA.SOLV>
0

>  <SCORE.INTRA.SOLV.lig_0>
-48.1583

>  <SCORE.INTRA.VDW>
0

>  <SCORE.INTRA.VDW.0>
0

>  <SCORE.INTRA.norm>
0

>  <SCORE.RESTR>
0

>  <SCORE.RESTR.CAVITY>
0

>  <SCORE.RESTR.norm>
0

>  <SCORE.SYSTEM>
0

>  <SCORE.SYSTEM.CONST>
0

>  <SCORE.SYSTEM.DIHEDRAL>
0

>  <SCORE.SYSTEM.SOLV>
0

>  <SCORE.SYSTEM.norm>
0

>  <SCORE.heavy>
12

>  <SCORE.norm>
-0.560938

>  <RMSD>
5.130

$$$$
ligand
 OpenBabel02271912143D
libRbt.so/2013.1/901 2013/11/27
 12 13  0  0  0  0  0  0  0  0999 V2000
    2.5812   13.1881    4.4800 C   0  0  0  0  0  0  0  0  0  0  0  0
    1.9032   15.2485    3.6255 C   0  0  0  0  0  0  0  0  0  0  0  0
    2.2642   12.0381    5.0681 N   0  0  0  0  0  0  0  0  0  0  0  0
    0.9766   16.1809    3.3784 N   0  0  0  0  0  0  0  0  0  0  0  0
    1.6089   14.0948    4.2397 N   0  0  0  0  0  0  0  0  0  0  0  0
    3.8600   13.4195    4.1089 N   0  0  0  0  0  0  0  0  0  0  0  0
    4.8676   16.9723    2.2441 N   0  0  0  0  0  0  0  0  0  0  0  0
    5.8497   16.0044    2.5052 C   0  0  0  0  0  0  0  0  0  0  0  0
    5.4980   14.7966    3.1518 N   0  0  0  0  0  0  0  0  0  0  0  0
    4.2101   14.5768    3.4941 C   0  0  0  0  0  0  0  0  0  0  0  0
    3.2176   15.5263    3.2306 C   0  0  0  0  0  0  0  0  0  0  0  0
    3.5270   16.7329    2.6055 C   0  0  0  0  0  0  0  0  0  0  0  0
  1  3  1  0  0  0  0
  1  5  1  0  0  0  0
  1  6  2  0  0  0  0
  2  5  2  0  0  0  0
  2 11  1  0  0  0  0
  2  4  1  0  0  0  0
  6 10  1  0  0  0  0
  7  8  2  0  0  0  0
  7 12  1  0  0  0  0
  8  9  1  0  0  0  0
  9 10  2  0  0  0  0
 10 11  1  0  0  0  0
 11 12  2  0  0  0  0
M  END
>  <CHROM.1>
3.34952016,14.87414838,3.52536315,-2.24086811,0.17452467,-0.44075362

>  <Name>
ligand

>  <RI>
0

>  <Rbt.Current_Directory>
/home/itssahil/PROJECTS/Mol_Feturizer/Test_systems_manuscript/rnas/4lx5

>  <Rbt.Executable>
rbdock ($Id: //depot/dev/client3/rdock/2013.1/src/exe/rbdock.cxx#4 $)

>  <Rbt.Library>
libRbt.so (2013.1, Build901 2013/11/27)

>  <Rbt.Parameter_File>
/export/apps/rDock/src/rDock_2013.1_src/data/scripts/dock_solv.prm

>  <Rbt.Receptor>
prm/blind_docking_20.prm

>  <SCORE>
-6.8213

>  <SCORE.INTER>
-6.8213

>  <SCORE.INTER.CONST>
1

>  <SCORE.INTER.POLAR>
0

>  <SCORE.INTER.ROT>
0

>  <SCORE.INTER.SOLV>
12.1136

>  <SCORE.INTER.VDW>
-12.1854

>  <SCORE.INTER.norm>
-0.568442

>  <SCORE.INTRA>
0

>  <SCORE.INTRA.DIHEDRAL>
0

>  <SCORE.INTRA.DIHEDRAL.0>
0

>  <SCORE.INTRA.POLAR>
0

>  <SCORE.INTRA.POLAR.0>
0

>  <SCORE.INTRA.REPUL>
0

>  <SCORE.INTRA.REPUL.0>
0

>  <SCORE.INTRA.SOLV>
0

>  <SCORE.INTRA.SOLV.lig_0>
-48.1583

>  <SCORE.INTRA.VDW>
0

>  <SCORE.INTRA.VDW.0>
0

>  <SCORE.INTRA.norm>
0

>  <SCORE.RESTR>
0

>  <SCORE.RESTR.CAVITY>
0

>  <SCORE.RESTR.norm>
0

>  <SCORE.SYSTEM>
0

>  <SCORE.SYSTEM.CONST>
0

>  <SCORE.SYSTEM.DIHEDRAL>
0

>  <SCORE.SYSTEM.SOLV>
0

>  <SCORE.SYSTEM.norm>
0

>  <SCORE.heavy>
12

>  <SCORE.norm>
-0.568442

>  <RMSD>
5.137

$$$$
ligand
 OpenBabel02271912143D
libRbt.so/2013.1/901 2013/11/27
 12 13  0  0  0  0  0  0  0  0999 V2000
    2.5052   13.1328    4.4193 C   0  0  0  0  0  0  0  0  0  0  0  0
    1.8806   15.2169    3.5818 C   0  0  0  0  0  0  0  0  0  0  0  0
    2.1562   11.9796    4.9826 N   0  0  0  0  0  0  0  0  0  0  0  0
    0.9754   16.1685    3.3287 N   0  0  0  0  0  0  0  0  0  0  0  0
    1.5537   14.0593    4.1716 N   0  0  0  0  0  0  0  0  0  0  0  0
    3.7956   13.3480    4.0800 N   0  0  0  0  0  0  0  0  0  0  0  0
    4.9032   16.9107    2.2925 N   0  0  0  0  0  0  0  0  0  0  0  0
    5.8631   15.9225    2.5602 C   0  0  0  0  0  0  0  0  0  0  0  0
    5.4771   14.7113    3.1803 N   0  0  0  0  0  0  0  0  0  0  0  0
    4.1785   14.5082    3.4908 C   0  0  0  0  0  0  0  0  0  0  0  0
    3.2080   15.4782    3.2202 C   0  0  0  0  0  0  0  0  0  0  0  0
    3.5511   16.6886    2.6206 C   0  0  0  0  0  0  0  0  0  0  0  0
  1  3  1  0  0  0  0
  1  5  1  0  0  0  0
  1  6  2  0  0  0  0
  2  5  2  0  0  0  0
  2 11  1  0  0  0  0
  2  4  1  0  0  0  0
  6 10  1  0  0  0  0
  7  8  2  0  0  0  0
  7 12  1  0  0  0  0
  8  9  1  0  0  0  0
  9 10  2  0  0  0  0
 10 11  1  0  0  0  0
 11 12  2  0  0  0  0
M  END
>  <CHROM.1>
3.32245813,14.81962636,3.50775391,-2.26569802,0.16143748,-0.42145597

>  <Name>
ligand

>  <RI>
0

>  <Rbt.Current_Directory>
/home/itssahil/PROJECTS/Mol_Feturizer/Test_systems_manuscript/rnas/4lx5

>  <Rbt.Executable>
rbdock ($Id: //depot/dev/client3/rdock/2013.1/src/exe/rbdock.cxx#4 $)

>  <Rbt.Library>
libRbt.so (2013.1, Build901 2013/11/27)

>  <Rbt.Parameter_File>
/export/apps/rDock/src/rDock_2013.1_src/data/scripts/dock_solv.prm

>  <Rbt.Receptor>
prm/blind_docking_80.prm

>  <SCORE>
-6.82427

>  <SCORE.INTER>
-6.82427

>  <SCORE.INTER.CONST>
1

>  <SCORE.INTER.POLAR>
0

>  <SCORE.INTER.ROT>
0

>  <SCORE.INTER.SOLV>
11.6948

>  <SCORE.INTER.VDW>
-12.0478

>  <SCORE.INTER.norm>
-0.568689

>  <SCORE.INTRA>
0

>  <SCORE.INTRA.DIHEDRAL>
0

>  <SCORE.INTRA.DIHEDRAL.0>
0

>  <SCORE.INTRA.POLAR>
0

>  <SCORE.INTRA.POLAR.0>
0

>  <SCORE.INTRA.REPUL>
0

>  <SCORE.INTRA.REPUL.0>
0

>  <SCORE.INTRA.SOLV>
0

>  <SCORE.INTRA.SOLV.lig_0>
-48.1583

>  <SCORE.INTRA.VDW>
0

>  <SCORE.INTRA.VDW.0>
0

>  <SCORE.INTRA.norm>
0

>  <SCORE.RESTR>
0

>  <SCORE.RESTR.CAVITY>
0

>  <SCORE.RESTR.norm>
0

>  <SCORE.SYSTEM>
0

>  <SCORE.SYSTEM.CONST>
0

>  <SCORE.SYSTEM.DIHEDRAL>
0

>  <SCORE.SYSTEM.SOLV>
0

>  <SCORE.SYSTEM.norm>
0

>  <SCORE.heavy>
12

>  <SCORE.norm>
-0.568689

>  <RMSD>
5.172

$$$$
ligand
 OpenBabel02271912143D
libRbt.so/2013.1/901 2013/11/27
 12 13  0  0  0  0  0  0  0  0999 V2000
    3.2139   13.1400    5.1162 C   0  0  0  0  0  0  0  0  0  0  0  0
    3.6582   14.7376    3.4775 C   0  0  0  0  0  0  0  0  0  0  0  0
    3.6170   12.0846    5.8181 N   0  0  0  0  0  0  0  0  0  0  0  0
    4.4319   15.2784    2.5300 N   0  0  0  0  0  0  0  0  0  0  0  0
    4.0351   13.6593    4.1775 N   0  0  0  0  0  0  0  0  0  0  0  0
    2.0062   13.6909    5.3706 N   0  0  0  0  0  0  0  0  0  0  0  0
    0.7426   16.9970    3.2286 N   0  0  0  0  0  0  0  0  0  0  0  0
   -0.0810   16.4334    4.2153 C   0  0  0  0  0  0  0  0  0  0  0  0
    0.3551   15.2973    4.9362 N   0  0  0  0  0  0  0  0  0  0  0  0
    1.5748   14.7764    4.6811 C   0  0  0  0  0  0  0  0  0  0  0  0
    2.4122   15.3332    3.7091 C   0  0  0  0  0  0  0  0  0  0  0  0
    2.0133   16.4456    2.9704 C   0  0  0  0  0  0  0  0  0  0  0  0
  1  3  1  0  0  0  0
  1  5  1  0  0  0  0
  1  6  2  0  0  0  0
  2  5  2  0  0  0  0
  2 11  1  0  0  0  0
  2  4  1  0  0  0  0
  6 10  1  0  0  0  0
  7  8  2  0  0  0  0
  7 12  1  0  0  0  0
  8  9  1  0  0  0  0
  9 10  2  0  0  0  0
 10 11  1  0  0  0  0
 11 12  2  0  0  0  0
M  END
>  <CHROM.1>
2.34692951,14.79815495,4.19797675,0.80978532,-0.42141565,2.42430778

>  <Name>
ligand

>  <RI>
0

>  <Rbt.Current_Directory>
/home/itssahil/PROJECTS/Mol_Feturizer/Test_systems_manuscript/rnas/4lx5

>  <Rbt.Executable>
rbdock ($Id: //depot/dev/client3/rdock/2013.1/src/exe/rbdock.cxx#4 $)

>  <Rbt.Library>
libRbt.so (2013.1, Build901 2013/11/27)

>  <Rbt.Parameter_File>
/export/apps/rDock/src/rDock_2013.1_src/data/scripts/dock_solv.prm

>  <Rbt.Receptor>
prm/blind_docking_100.prm

>  <SCORE>
-7.08736

>  <SCORE.INTER>
-7.08736

>  <SCORE.INTER.CONST>
1

>  <SCORE.INTER.POLAR>
0

>  <SCORE.INTER.ROT>
0

>  <SCORE.INTER.SOLV>
16.0363

>  <SCORE.INTER.VDW>
-13.6703

>  <SCORE.INTER.norm>
-0.590613

>  <SCORE.INTRA>
0

>  <SCORE.INTRA.DIHEDRAL>
0

>  <SCORE.INTRA.DIHEDRAL.0>
0

>  <SCORE.INTRA.POLAR>
0

>  <SCORE.INTRA.POLAR.0>
0

>  <SCORE.INTRA.REPUL>
0

>  <SCORE.INTRA.REPUL.0>
0

>  <SCORE.INTRA.SOLV>
0

>  <SCORE.INTRA.SOLV.lig_0>
-48.1583

>  <SCORE.INTRA.VDW>
0

>  <SCORE.INTRA.VDW.0>
0

>  <SCORE.INTRA.norm>
0

>  <SCORE.RESTR>
0

>  <SCORE.RESTR.CAVITY>
0

>  <SCORE.RESTR.norm>
0

>  <SCORE.SYSTEM>
0

>  <SCORE.SYSTEM.CONST>
0

>  <SCORE.SYSTEM.DIHEDRAL>
0

>  <SCORE.SYSTEM.SOLV>
0

>  <SCORE.SYSTEM.norm>
0

>  <SCORE.heavy>
12

>  <SCORE.norm>
-0.590613

>  <RMSD>
5.781

$$$$
ligand
 OpenBabel02271912143D
libRbt.so/2013.1/901 2013/11/27
 12 13  0  0  0  0  0  0  0  0999 V2000
    3.1884   13.1384    5.1135 C   0  0  0  0  0  0  0  0  0  0  0  0
    3.6623   14.7494    3.4964 C   0  0  0  0  0  0  0  0  0  0  0  0
    3.5772   12.0749    5.8110 N   0  0  0  0  0  0  0  0  0  0  0  0
    4.4515   15.2960    2.5651 N   0  0  0  0  0  0  0  0  0  0  0  0
    4.0249   13.6632    4.1915 N   0  0  0  0  0  0  0  0  0  0  0  0
    1.9793   13.6917    5.3557 N   0  0  0  0  0  0  0  0  0  0  0  0
    0.7593   17.0227    3.2271 N   0  0  0  0  0  0  0  0  0  0  0  0
   -0.0805   16.4533    4.1966 C   0  0  0  0  0  0  0  0  0  0  0  0
    0.3408   15.3087    4.9129 N   0  0  0  0  0  0  0  0  0  0  0  0
    1.5620   14.7854    4.6704 C   0  0  0  0  0  0  0  0  0  0  0  0
    2.4154   15.3479    3.7157 C   0  0  0  0  0  0  0  0  0  0  0  0
    2.0314   16.4687    2.9819 C   0  0  0  0  0  0  0  0  0  0  0  0
  1  3  1  0  0  0  0
  1  5  1  0  0  0  0
  1  6  2  0  0  0  0
  2  5  2  0  0  0  0
  2 11  1  0  0  0  0
  2  4  1  0  0  0  0
  6 10  1  0  0  0  0
  7  8  2  0  0  0  0
  7 12  1  0  0  0  0
  8  9  1  0  0  0  0
  9 10  2  0  0  0  0
 10 11  1  0  0  0  0
 11 12  2  0  0  0  0
M  END
>  <CHROM.1>
2.34105501,14.80852564,4.19855501,0.82325158,-0.41313419,2.43913257

>  <Name>
ligand

>  <RI>
0

>  <Rbt.Current_Directory>
/home/itssahil/PROJECTS/Mol_Feturizer/Test_systems_manuscript/rnas/4lx5

>  <Rbt.Executable>
rbdock ($Id: //depot/dev/client3/rdock/2013.1/src/exe/rbdock.cxx#4 $)

>  <Rbt.Library>
libRbt.so (2013.1, Build901 2013/11/27)

>  <Rbt.Parameter_File>
/export/apps/rDock/src/rDock_2013.1_src/data/scripts/dock_solv.prm

>  <Rbt.Receptor>
prm/blind_docking_20.prm

>  <SCORE>
-7.01732

>  <SCORE.INTER>
-7.01732

>  <SCORE.INTER.CONST>
1

>  <SCORE.INTER.POLAR>
0

>  <SCORE.INTER.ROT>
0

>  <SCORE.INTER.SOLV>
15.7727

>  <SCORE.INTER.VDW>
-13.5358

>  <SCORE.INTER.norm>
-0.584777

>  <SCORE.INTRA>
0

>  <SCORE.INTRA.DIHEDRAL>
0

>  <SCORE.INTRA.DIHEDRAL.0>
0

>  <SCORE.INTRA.POLAR>
0

>  <SCORE.INTRA.POLAR.0>
0

>  <SCORE.INTRA.REPUL>
0

>  <SCORE.INTRA.REPUL.0>
0

>  <SCORE.INTRA.SOLV>
0

>  <SCORE.INTRA.SOLV.lig_0>
-48.1583

>  <SCORE.INTRA.VDW>
0

>  <SCORE.INTRA.VDW.0>
0

>  <SCORE.INTRA.norm>
0

>  <SCORE.RESTR>
0

>  <SCORE.RESTR.CAVITY>
0

>  <SCORE.RESTR.norm>
0

>  <SCORE.SYSTEM>
0

>  <SCORE.SYSTEM.CONST>
0

>  <SCORE.SYSTEM.DIHEDRAL>
0

>  <SCORE.SYSTEM.SOLV>
0

>  <SCORE.SYSTEM.norm>
0

>  <SCORE.heavy>
12

>  <SCORE.norm>
-0.584777

>  <RMSD>
5.784

$$$$
ligand
 OpenBabel02271912143D
libRbt.so/2013.1/901 2013/11/27
 12 13  0  0  0  0  0  0  0  0999 V2000
    3.1926   13.1247    5.1263 C   0  0  0  0  0  0  0  0  0  0  0  0
    3.6509   14.7155    3.4849 C   0  0  0  0  0  0  0  0  0  0  0  0
    3.5870   12.0681    5.8312 N   0  0  0  0  0  0  0  0  0  0  0  0
    4.4300   15.2489    2.5376 N   0  0  0  0  0  0  0  0  0  0  0  0
    4.0191   13.6362    4.1880 N   0  0  0  0  0  0  0  0  0  0  0  0
    1.9882   13.6843    5.3771 N   0  0  0  0  0  0  0  0  0  0  0  0
    0.7513   16.9943    3.2255 N   0  0  0  0  0  0  0  0  0  0  0  0
   -0.0780   16.4385    4.2119 C   0  0  0  0  0  0  0  0  0  0  0  0
    0.3490   15.3011    4.9361 N   0  0  0  0  0  0  0  0  0  0  0  0
    1.5655   14.7713    4.6845 C   0  0  0  0  0  0  0  0  0  0  0  0
    2.4086   15.3202    3.7128 C   0  0  0  0  0  0  0  0  0  0  0  0
    2.0186   16.4336    2.9709 C   0  0  0  0  0  0  0  0  0  0  0  0
  1  3  1  0  0  0  0
  1  5  1  0  0  0  0
  1  6  2  0  0  0  0
  2  5  2  0  0  0  0
  2 11  1  0  0  0  0
  2  4  1  0  0  0  0
  6 10  1  0  0  0  0
  7  8  2  0  0  0  0
  7 12  1  0  0  0  0
  8  9  1  0  0  0  0
  9 10  2  0  0  0  0
 10 11  1  0  0  0  0
 11 12  2  0  0  0  0
M  END
>  <CHROM.1>
2.33869462,14.78663599,4.20274369,0.81681245,-0.42450200,2.42497516

>  <Name>
ligand

>  <RI>
0

>  <Rbt.Current_Directory>
/home/itssahil/PROJECTS/Mol_Feturizer/Test_systems_manuscript/rnas/4lx5

>  <Rbt.Executable>
rbdock ($Id: //depot/dev/client3/rdock/2013.1/src/exe/rbdock.cxx#4 $)

>  <Rbt.Library>
libRbt.so (2013.1, Build901 2013/11/27)

>  <Rbt.Parameter_File>
/export/apps/rDock/src/rDock_2013.1_src/data/scripts/dock_solv.prm

>  <Rbt.Receptor>
prm/blind_docking_100.prm

>  <SCORE>
-7.09554

>  <SCORE.INTER>
-7.09554

>  <SCORE.INTER.CONST>
1

>  <SCORE.INTER.POLAR>
0

>  <SCORE.INTER.ROT>
0

>  <SCORE.INTER.SOLV>
16.0264

>  <SCORE.INTER.VDW>
-13.6725

>  <SCORE.INTER.norm>
-0.591295

>  <SCORE.INTRA>
0

>  <SCORE.INTRA.DIHEDRAL>
0

>  <SCORE.INTRA.DIHEDRAL.0>
0

>  <SCORE.INTRA.POLAR>
0

>  <SCORE.INTRA.POLAR.0>
0

>  <SCORE.INTRA.REPUL>
0

>  <SCORE.INTRA.REPUL.0>
0

>  <SCORE.INTRA.SOLV>
0

>  <SCORE.INTRA.SOLV.lig_0>
-48.1583

>  <SCORE.INTRA.VDW>
0

>  <SCORE.INTRA.VDW.0>
0

>  <SCORE.INTRA.norm>
0

>  <SCORE.RESTR>
0

>  <SCORE.RESTR.CAVITY>
0

>  <SCORE.RESTR.norm>
0

>  <SCORE.SYSTEM>
0

>  <SCORE.SYSTEM.CONST>
0

>  <SCORE.SYSTEM.DIHEDRAL>
0

>  <SCORE.SYSTEM.SOLV>
0

>  <SCORE.SYSTEM.norm>
0

>  <SCORE.heavy>
12

>  <SCORE.norm>
-0.591295

>  <RMSD>
5.793

$$$$
ligand
 OpenBabel02271912143D
libRbt.so/2013.1/901 2013/11/27
 12 13  0  0  0  0  0  0  0  0999 V2000
    3.1933   13.1208    5.1367 C   0  0  0  0  0  0  0  0  0  0  0  0
    3.6738   14.7301    3.5199 C   0  0  0  0  0  0  0  0  0  0  0  0
    3.5817   12.0618    5.8415 N   0  0  0  0  0  0  0  0  0  0  0  0
    4.4693   15.2790    2.5953 N   0  0  0  0  0  0  0  0  0  0  0  0
    4.0361   13.6482    4.2221 N   0  0  0  0  0  0  0  0  0  0  0  0
    1.9782   13.6669    5.3646 N   0  0  0  0  0  0  0  0  0  0  0  0
    0.7592   16.9837    3.2133 N   0  0  0  0  0  0  0  0  0  0  0  0
   -0.0871   16.4116    4.1756 C   0  0  0  0  0  0  0  0  0  0  0  0
    0.3341   15.2719    4.8998 N   0  0  0  0  0  0  0  0  0  0  0  0
    1.5611   14.7558    4.6716 C   0  0  0  0  0  0  0  0  0  0  0  0
    2.4208   15.3211    3.7243 C   0  0  0  0  0  0  0  0  0  0  0  0
    2.0373   16.4372    2.9832 C   0  0  0  0  0  0  0  0  0  0  0  0
  1  3  1  0  0  0  0
  1  5  1  0  0  0  0
  1  6  2  0  0  0  0
  2  5  2  0  0  0  0
  2 11  1  0  0  0  0
  2  4  1  0  0  0  0
  6 10  1  0  0  0  0
  7  8  2  0  0  0  0
  7 12  1  0  0  0  0
  8  9  1  0  0  0  0
  9 10  2  0  0  0  0
 10 11  1  0  0  0  0
 11 12  2  0  0  0  0
M  END
>  <CHROM.1>
2.34489151,14.78263522,4.20796943,0.82527863,-0.40091895,2.43699204

>  <Name>
ligand

>  <RI>
0

>  <Rbt.Current_Directory>
/home/itssahil/PROJECTS/Mol_Feturizer/Test_systems_manuscript/rnas/4lx5

>  <Rbt.Executable>
rbdock ($Id: //depot/dev/client3/rdock/2013.1/src/exe/rbdock.cxx#4 $)

>  <Rbt.Library>
libRbt.so (2013.1, Build901 2013/11/27)

>  <Rbt.Parameter_File>
/export/apps/rDock/src/rDock_2013.1_src/data/scripts/dock_solv.prm

>  <Rbt.Receptor>
prm/blind_docking_20.prm

>  <SCORE>
-6.99706

>  <SCORE.INTER>
-6.99706

>  <SCORE.INTER.CONST>
1

>  <SCORE.INTER.POLAR>
0

>  <SCORE.INTER.ROT>
0

>  <SCORE.INTER.SOLV>
15.8535

>  <SCORE.INTER.VDW>
-13.5492

>  <SCORE.INTER.norm>
-0.583088

>  <SCORE.INTRA>
0

>  <SCORE.INTRA.DIHEDRAL>
0

>  <SCORE.INTRA.DIHEDRAL.0>
0

>  <SCORE.INTRA.POLAR>
0

>  <SCORE.INTRA.POLAR.0>
0

>  <SCORE.INTRA.REPUL>
0

>  <SCORE.INTRA.REPUL.0>
0

>  <SCORE.INTRA.SOLV>
0

>  <SCORE.INTRA.SOLV.lig_0>
-48.1583

>  <SCORE.INTRA.VDW>
0

>  <SCORE.INTRA.VDW.0>
0

>  <SCORE.INTRA.norm>
0

>  <SCORE.RESTR>
0

>  <SCORE.RESTR.CAVITY>
0

>  <SCORE.RESTR.norm>
0

>  <SCORE.SYSTEM>
0

>  <SCORE.SYSTEM.CONST>
0

>  <SCORE.SYSTEM.DIHEDRAL>
0

>  <SCORE.SYSTEM.SOLV>
0

>  <SCORE.SYSTEM.norm>
0

>  <SCORE.heavy>
12

>  <SCORE.norm>
-0.583088

>  <RMSD>
5.801

$$$$
ligand
 OpenBabel02271912143D
libRbt.so/2013.1/901 2013/11/27
 12 13  0  0  0  0  0  0  0  0999 V2000
    2.6245   11.1534    5.6167 C   0  0  0  0  0  0  0  0  0  0  0  0
    1.2300   12.2529    4.1063 C   0  0  0  0  0  0  0  0  0  0  0  0
    2.9001   10.0643    6.3286 N   0  0  0  0  0  0  0  0  0  0  0  0
    0.1342   12.3249    3.3427 N   0  0  0  0  0  0  0  0  0  0  0  0
    1.5121   11.1752    4.8504 N   0  0  0  0  0  0  0  0  0  0  0  0
    3.4716   12.2060    5.6493 N   0  0  0  0  0  0  0  0  0  0  0  0
    2.6586   15.5921    3.4159 N   0  0  0  0  0  0  0  0  0  0  0  0
    3.8076   15.5309    4.2194 C   0  0  0  0  0  0  0  0  0  0  0  0
    4.0727   14.3729    4.9871 N   0  0  0  0  0  0  0  0  0  0  0  0
    3.2242   13.3241    4.9224 C   0  0  0  0  0  0  0  0  0  0  0  0
    2.0810   13.3649    4.1177 C   0  0  0  0  0  0  0  0  0  0  0  0
    1.7800   14.4923    3.3557 C   0  0  0  0  0  0  0  0  0  0  0  0
  1  3  1  0  0  0  0
  1  5  1  0  0  0  0
  1  6  2  0  0  0  0
  2  5  2  0  0  0  0
  2 11  1  0  0  0  0
  2  4  1  0  0  0  0
  6 10  1  0  0  0  0
  7  8  2  0  0  0  0
  7 12  1  0  0  0  0
  8  9  1  0  0  0  0
  9 10  2  0  0  0  0
 10 11  1  0  0  0  0
 11 12  2  0  0  0  0
M  END
>  <CHROM.1>
2.45806031,12.95978660,4.59031334,-1.76046991,-0.54441726,-0.46338448

>  <Name>
ligand

>  <RI>
0

>  <Rbt.Current_Directory>
/home/itssahil/PROJECTS/Mol_Feturizer/Test_systems_manuscript/rnas/4lx5

>  <Rbt.Executable>
rbdock ($Id: //depot/dev/client3/rdock/2013.1/src/exe/rbdock.cxx#4 $)

>  <Rbt.Library>
libRbt.so (2013.1, Build901 2013/11/27)

>  <Rbt.Parameter_File>
/export/apps/rDock/src/rDock_2013.1_src/data/scripts/dock_solv.prm

>  <Rbt.Receptor>
prm/pocket_docking_8.prm

>  <SCORE>
-5.33188

>  <SCORE.INTER>
-5.33188

>  <SCORE.INTER.CONST>
1

>  <SCORE.INTER.POLAR>
0

>  <SCORE.INTER.ROT>
0

>  <SCORE.INTER.SOLV>
5.19137

>  <SCORE.INTER.VDW>
-8.88504

>  <SCORE.INTER.norm>
-0.444323

>  <SCORE.INTRA>
0

>  <SCORE.INTRA.DIHEDRAL>
0

>  <SCORE.INTRA.DIHEDRAL.0>
0

>  <SCORE.INTRA.POLAR>
0

>  <SCORE.INTRA.POLAR.0>
0

>  <SCORE.INTRA.REPUL>
0

>  <SCORE.INTRA.REPUL.0>
0

>  <SCORE.INTRA.SOLV>
0

>  <SCORE.INTRA.SOLV.lig_0>
-48.1583

>  <SCORE.INTRA.VDW>
0

>  <SCORE.INTRA.VDW.0>
0

>  <SCORE.INTRA.norm>
0

>  <SCORE.RESTR>
0

>  <SCORE.RESTR.CAVITY>
0

>  <SCORE.RESTR.norm>
0

>  <SCORE.SYSTEM>
0

>  <SCORE.SYSTEM.CONST>
0

>  <SCORE.SYSTEM.DIHEDRAL>
0

>  <SCORE.SYSTEM.SOLV>
0

>  <SCORE.SYSTEM.norm>
0

>  <SCORE.heavy>
12

>  <SCORE.norm>
-0.444323

>  <RMSD>
6.592

$$$$
ligand
 OpenBabel02271912143D
libRbt.so/2013.1/901 2013/11/27
 12 13  0  0  0  0  0  0  0  0999 V2000
    1.2920   11.5117    1.8978 C   0  0  0  0  0  0  0  0  0  0  0  0
    1.8678   11.9896    4.1057 C   0  0  0  0  0  0  0  0  0  0  0  0
    1.1823   10.6217    0.9156 N   0  0  0  0  0  0  0  0  0  0  0  0
    2.3497   11.6450    5.3049 N   0  0  0  0  0  0  0  0  0  0  0  0
    1.7732   11.1143    3.0960 N   0  0  0  0  0  0  0  0  0  0  0  0
    0.8968   12.7877    1.6915 N   0  0  0  0  0  0  0  0  0  0  0  0
    1.1919   15.5684    4.7403 N   0  0  0  0  0  0  0  0  0  0  0  0
    0.6918   15.9433    3.4838 C   0  0  0  0  0  0  0  0  0  0  0  0
    0.6033   14.9882    2.4443 N   0  0  0  0  0  0  0  0  0  0  0  0
    0.9831   13.7136    2.6789 C   0  0  0  0  0  0  0  0  0  0  0  0
    1.4729   13.3214    3.9289 C   0  0  0  0  0  0  0  0  0  0  0  0
    1.5855   14.2359    4.9744 C   0  0  0  0  0  0  0  0  0  0  0  0
  1  3  1  0  0  0  0
  1  5  1  0  0  0  0
  1  6  2  0  0  0  0
  2  5  2  0  0  0  0
  2 11  1  0  0  0  0
  2  4  1  0  0  0  0
  6 10  1  0  0  0  0
  7  8  2  0  0  0  0
  7 12  1  0  0  0  0
  8  9  1  0  0  0  0
  9 10  2  0  0  0  0
 10 11  1  0  0  0  0
 11 12  2  0  0  0  0
M  END
>  <CHROM.1>
1.32486397,13.09455491,3.25345407,1.33714507,1.18533420,-2.48304281

>  <Name>
ligand

>  <RI>
0

>  <Rbt.Current_Directory>
/home/itssahil/PROJECTS/Mol_Feturizer/Test_systems_manuscript/rnas/4lx5

>  <Rbt.Executable>
rbdock ($Id: //depot/dev/client3/rdock/2013.1/src/exe/rbdock.cxx#4 $)

>  <Rbt.Library>
libRbt.so (2013.1, Build901 2013/11/27)

>  <Rbt.Parameter_File>
/export/apps/rDock/src/rDock_2013.1_src/data/scripts/dock_solv.prm

>  <Rbt.Receptor>
prm/pocket_docking_8.prm

>  <SCORE>
-6.82945

>  <SCORE.INTER>
-6.82945

>  <SCORE.INTER.CONST>
1

>  <SCORE.INTER.POLAR>
0

>  <SCORE.INTER.ROT>
0

>  <SCORE.INTER.SOLV>
7.19472

>  <SCORE.INTER.VDW>
-10.5512

>  <SCORE.INTER.norm>
-0.569121

>  <SCORE.INTRA>
0

>  <SCORE.INTRA.DIHEDRAL>
0

>  <SCORE.INTRA.DIHEDRAL.0>
0

>  <SCORE.INTRA.POLAR>
0

>  <SCORE.INTRA.POLAR.0>
0

>  <SCORE.INTRA.REPUL>
0

>  <SCORE.INTRA.REPUL.0>
0

>  <SCORE.INTRA.SOLV>
0

>  <SCORE.INTRA.SOLV.lig_0>
-48.1583

>  <SCORE.INTRA.VDW>
0

>  <SCORE.INTRA.VDW.0>
0

>  <SCORE.INTRA.norm>
0

>  <SCORE.RESTR>
0

>  <SCORE.RESTR.CAVITY>
0

>  <SCORE.RESTR.norm>
0

>  <SCORE.SYSTEM>
0

>  <SCORE.SYSTEM.CONST>
0

>  <SCORE.SYSTEM.DIHEDRAL>
0

>  <SCORE.SYSTEM.SOLV>
0

>  <SCORE.SYSTEM.norm>
0

>  <SCORE.heavy>
12

>  <SCORE.norm>
-0.569121

>  <RMSD>
6.815

$$$$
ligand
 OpenBabel02271912143D
libRbt.so/2013.1/901 2013/11/27
 12 13  0  0  0  0  0  0  0  0999 V2000
    0.1525    9.4697   11.8629 C   0  0  0  0  0  0  0  0  0  0  0  0
    1.4598    8.8901   10.0218 C   0  0  0  0  0  0  0  0  0  0  0  0
   -0.7070    9.1057   12.8104 N   0  0  0  0  0  0  0  0  0  0  0  0
    1.8966    8.0171    9.1074 N   0  0  0  0  0  0  0  0  0  0  0  0
    0.5749    8.5497   10.9682 N   0  0  0  0  0  0  0  0  0  0  0  0
    0.6089   10.7413   11.8265 N   0  0  0  0  0  0  0  0  0  0  0  0
    3.3116   11.8917    8.9133 N   0  0  0  0  0  0  0  0  0  0  0  0
    2.8545   12.8184    9.8630 C   0  0  0  0  0  0  0  0  0  0  0  0
    1.9231   12.4187   10.8496 N   0  0  0  0  0  0  0  0  0  0  0  0
    1.4971   11.1375   10.8810 C   0  0  0  0  0  0  0  0  0  0  0  0
    1.9518   10.1991    9.9490 C   0  0  0  0  0  0  0  0  0  0  0  0
    2.8607   10.5575    8.9551 C   0  0  0  0  0  0  0  0  0  0  0  0
  1  3  1  0  0  0  0
  1  5  1  0  0  0  0
  1  6  2  0  0  0  0
  2  5  2  0  0  0  0
  2 11  1  0  0  0  0
  2  4  1  0  0  0  0
  6 10  1  0  0  0  0
  7  8  2  0  0  0  0
  7 12  1  0  0  0  0
  8  9  1  0  0  0  0
  9 10  2  0  0  0  0
 10 11  1  0  0  0  0
 11 12  2  0  0  0  0
M  END
>  <CHROM.1>
1.51179522,10.30137066,10.51949089,2.72701444,-0.85724121,-2.75770427

>  <Name>
ligand

>  <RI>
0

>  <Rbt.Current_Directory>
/home/itssahil/PROJECTS/Mol_Feturizer/Test_systems_manuscript/rnas/4lx5

>  <Rbt.Executable>
rbdock ($Id: //depot/dev/client3/rdock/2013.1/src/exe/rbdock.cxx#4 $)

>  <Rbt.Library>
libRbt.so (2013.1, Build901 2013/11/27)

>  <Rbt.Parameter_File>
/export/apps/rDock/src/rDock_2013.1_src/data/scripts/dock_solv.prm

>  <Rbt.Receptor>
prm/blind_docking_20.prm

>  <SCORE>
-6.81746

>  <SCORE.INTER>
-6.81746

>  <SCORE.INTER.CONST>
1

>  <SCORE.INTER.POLAR>
0

>  <SCORE.INTER.ROT>
0

>  <SCORE.INTER.SOLV>
2.9936

>  <SCORE.INTER.VDW>
-9.14284

>  <SCORE.INTER.norm>
-0.568122

>  <SCORE.INTRA>
0

>  <SCORE.INTRA.DIHEDRAL>
0

>  <SCORE.INTRA.DIHEDRAL.0>
0

>  <SCORE.INTRA.POLAR>
0

>  <SCORE.INTRA.POLAR.0>
0

>  <SCORE.INTRA.REPUL>
0

>  <SCORE.INTRA.REPUL.0>
0

>  <SCORE.INTRA.SOLV>
0

>  <SCORE.INTRA.SOLV.lig_0>
-48.1583

>  <SCORE.INTRA.VDW>
0

>  <SCORE.INTRA.VDW.0>
0

>  <SCORE.INTRA.norm>
0

>  <SCORE.RESTR>
0

>  <SCORE.RESTR.CAVITY>
0

>  <SCORE.RESTR.norm>
0

>  <SCORE.SYSTEM>
0

>  <SCORE.SYSTEM.CONST>
0

>  <SCORE.SYSTEM.DIHEDRAL>
0

>  <SCORE.SYSTEM.SOLV>
0

>  <SCORE.SYSTEM.norm>
0

>  <SCORE.heavy>
12

>  <SCORE.norm>
-0.568122

>  <RMSD>
11.539

$$$$
ligand
 OpenBabel02271912143D
libRbt.so/2013.1/901 2013/11/27
 12 13  0  0  0  0  0  0  0  0999 V2000
   -3.4917   24.7476   -0.9970 C   0  0  0  0  0  0  0  0  0  0  0  0
   -2.6860   26.8189   -1.7010 C   0  0  0  0  0  0  0  0  0  0  0  0
   -4.4826   23.8610   -0.9651 N   0  0  0  0  0  0  0  0  0  0  0  0
   -2.8302   28.0003   -2.3112 N   0  0  0  0  0  0  0  0  0  0  0  0
   -3.6800   25.9230   -1.6358 N   0  0  0  0  0  0  0  0  0  0  0  0
   -2.3084   24.4494   -0.4161 N   0  0  0  0  0  0  0  0  0  0  0  0
    0.8033   27.1731   -0.5322 N   0  0  0  0  0  0  0  0  0  0  0  0
    0.9638   25.9396    0.1176 C   0  0  0  0  0  0  0  0  0  0  0  0
   -0.1086   25.0183    0.1606 N   0  0  0  0  0  0  0  0  0  0  0  0
   -1.2752   25.3277   -0.4454 C   0  0  0  0  0  0  0  0  0  0  0  0
   -1.4473   26.5479   -1.1070 C   0  0  0  0  0  0  0  0  0  0  0  0
   -0.4180   27.4859   -1.1612 C   0  0  0  0  0  0  0  0  0  0  0  0
  1  3  1  0  0  0  0
  1  5  1  0  0  0  0
  1  6  2  0  0  0  0
  2  5  2  0  0  0  0
  2 11  1  0  0  0  0
  2  4  1  0  0  0  0
  6 10  1  0  0  0  0
  7  8  2  0  0  0  0
  7 12  1  0  0  0  0
  8  9  1  0  0  0  0
  9 10  2  0  0  0  0
 10 11  1  0  0  0  0
 11 12  2  0  0  0  0
M  END
>  <CHROM.1>
-1.77391611,25.92543831,-0.91874101,-2.91161414,-0.33069152,-0.44805147

>  <Name>
ligand

>  <RI>
0

>  <Rbt.Current_Directory>
/home/itssahil/PROJECTS/Mol_Feturizer/Test_systems_manuscript/rnas/4lx5

>  <Rbt.Executable>
rbdock ($Id: //depot/dev/client3/rdock/2013.1/src/exe/rbdock.cxx#4 $)

>  <Rbt.Library>
libRbt.so (2013.1, Build901 2013/11/27)

>  <Rbt.Parameter_File>
/export/apps/rDock/src/rDock_2013.1_src/data/scripts/dock_solv.prm

>  <Rbt.Receptor>
prm/blind_docking_60.prm

>  <SCORE>
-8.04813

>  <SCORE.INTER>
-8.04813

>  <SCORE.INTER.CONST>
1

>  <SCORE.INTER.POLAR>
0

>  <SCORE.INTER.ROT>
0

>  <SCORE.INTER.SOLV>
4.41912

>  <SCORE.INTER.VDW>
-10.4385

>  <SCORE.INTER.norm>
-0.670677

>  <SCORE.INTRA>
0

>  <SCORE.INTRA.DIHEDRAL>
0

>  <SCORE.INTRA.DIHEDRAL.0>
0

>  <SCORE.INTRA.POLAR>
0

>  <SCORE.INTRA.POLAR.0>
0

>  <SCORE.INTRA.REPUL>
0

>  <SCORE.INTRA.REPUL.0>
0

>  <SCORE.INTRA.SOLV>
0

>  <SCORE.INTRA.SOLV.lig_0>
-48.1583

>  <SCORE.INTRA.VDW>
0

>  <SCORE.INTRA.VDW.0>
0

>  <SCORE.INTRA.norm>
0

>  <SCORE.RESTR>
0

>  <SCORE.RESTR.CAVITY>
0

>  <SCORE.RESTR.norm>
0

>  <SCORE.SYSTEM>
0

>  <SCORE.SYSTEM.CONST>
0

>  <SCORE.SYSTEM.DIHEDRAL>
0

>  <SCORE.SYSTEM.SOLV>
0

>  <SCORE.SYSTEM.norm>
0

>  <SCORE.heavy>
12

>  <SCORE.norm>
-0.670677

>  <RMSD>
12.813

$$$$
ligand
 OpenBabel02271912143D
libRbt.so/2013.1/901 2013/11/27
 12 13  0  0  0  0  0  0  0  0999 V2000
   -3.4910   24.7868   -0.9676 C   0  0  0  0  0  0  0  0  0  0  0  0
   -2.6784   26.8564   -1.6687 C   0  0  0  0  0  0  0  0  0  0  0  0
   -4.4869   23.9061   -0.9318 N   0  0  0  0  0  0  0  0  0  0  0  0
   -2.8203   28.0415   -2.2724 N   0  0  0  0  0  0  0  0  0  0  0  0
   -3.6772   25.9663   -1.5996 N   0  0  0  0  0  0  0  0  0  0  0  0
   -2.3049   24.4788   -0.3975 N   0  0  0  0  0  0  0  0  0  0  0  0
    0.8223   27.1843   -0.5262 N   0  0  0  0  0  0  0  0  0  0  0  0
    0.9804   25.9469    0.1167 C   0  0  0  0  0  0  0  0  0  0  0  0
   -0.0972   25.0318    0.1642 N   0  0  0  0  0  0  0  0  0  0  0  0
   -1.2666   25.3511   -0.4312 C   0  0  0  0  0  0  0  0  0  0  0  0
   -1.4366   26.5753   -1.0858 C   0  0  0  0  0  0  0  0  0  0  0  0
   -0.4021   27.5073   -1.1440 C   0  0  0  0  0  0  0  0  0  0  0  0
  1  3  1  0  0  0  0
  1  5  1  0  0  0  0
  1  6  2  0  0  0  0
  2  5  2  0  0  0  0
  2 11  1  0  0  0  0
  2  4  1  0  0  0  0
  6 10  1  0  0  0  0
  7  8  2  0  0  0  0
  7 12  1  0  0  0  0
  8  9  1  0  0  0  0
  9 10  2  0  0  0  0
 10 11  1  0  0  0  0
 11 12  2  0  0  0  0
M  END
>  <CHROM.1>
-1.76551555,25.95393859,-0.89776536,-2.91372804,-0.32088443,-0.44418383

>  <Name>
ligand

>  <RI>
0

>  <Rbt.Current_Directory>
/home/itssahil/PROJECTS/Mol_Feturizer/Test_systems_manuscript/rnas/4lx5

>  <Rbt.Executable>
rbdock ($Id: //depot/dev/client3/rdock/2013.1/src/exe/rbdock.cxx#4 $)

>  <Rbt.Library>
libRbt.so (2013.1, Build901 2013/11/27)

>  <Rbt.Parameter_File>
/export/apps/rDock/src/rDock_2013.1_src/data/scripts/dock_solv.prm

>  <Rbt.Receptor>
prm/blind_docking_60.prm

>  <SCORE>
-8.06473

>  <SCORE.INTER>
-8.06473

>  <SCORE.INTER.CONST>
1

>  <SCORE.INTER.POLAR>
0

>  <SCORE.INTER.ROT>
0

>  <SCORE.INTER.SOLV>
4.33765

>  <SCORE.INTER.VDW>
-10.4224

>  <SCORE.INTER.norm>
-0.672061

>  <SCORE.INTRA>
0

>  <SCORE.INTRA.DIHEDRAL>
0

>  <SCORE.INTRA.DIHEDRAL.0>
0

>  <SCORE.INTRA.POLAR>
0

>  <SCORE.INTRA.POLAR.0>
0

>  <SCORE.INTRA.REPUL>
0

>  <SCORE.INTRA.REPUL.0>
0

>  <SCORE.INTRA.SOLV>
0

>  <SCORE.INTRA.SOLV.lig_0>
-48.1583

>  <SCORE.INTRA.VDW>
0

>  <SCORE.INTRA.VDW.0>
0

>  <SCORE.INTRA.norm>
0

>  <SCORE.RESTR>
0

>  <SCORE.RESTR.CAVITY>
0

>  <SCORE.RESTR.norm>
0

>  <SCORE.SYSTEM>
0

>  <SCORE.SYSTEM.CONST>
0

>  <SCORE.SYSTEM.DIHEDRAL>
0

>  <SCORE.SYSTEM.SOLV>
0

>  <SCORE.SYSTEM.norm>
0

>  <SCORE.heavy>
12

>  <SCORE.norm>
-0.672061

>  <RMSD>
12.822

$$$$
ligand
 OpenBabel02271912143D
libRbt.so/2013.1/901 2013/11/27
 12 13  0  0  0  0  0  0  0  0999 V2000
   -3.4427   24.8593   -1.0002 C   0  0  0  0  0  0  0  0  0  0  0  0
   -2.6050   26.9140   -1.7153 C   0  0  0  0  0  0  0  0  0  0  0  0
   -4.4472   23.9884   -0.9637 N   0  0  0  0  0  0  0  0  0  0  0  0
   -2.7309   28.0943   -2.3318 N   0  0  0  0  0  0  0  0  0  0  0  0
   -3.6127   26.0341   -1.6453 N   0  0  0  0  0  0  0  0  0  0  0  0
   -2.2641   24.5458   -0.4177 N   0  0  0  0  0  0  0  0  0  0  0  0
    0.8896   27.2202   -0.5483 N   0  0  0  0  0  0  0  0  0  0  0  0
    1.0309   25.9878    0.1081 C   0  0  0  0  0  0  0  0  0  0  0  0
   -0.0557   25.0835    0.1560 N   0  0  0  0  0  0  0  0  0  0  0  0
   -1.2174   25.4078   -0.4517 C   0  0  0  0  0  0  0  0  0  0  0  0
   -1.3705   26.6270   -1.1198 C   0  0  0  0  0  0  0  0  0  0  0  0
   -0.3268   27.5486   -1.1790 C   0  0  0  0  0  0  0  0  0  0  0  0
  1  3  1  0  0  0  0
  1  5  1  0  0  0  0
  1  6  2  0  0  0  0
  2  5  2  0  0  0  0
  2 11  1  0  0  0  0
  2  4  1  0  0  0  0
  6 10  1  0  0  0  0
  7  8  2  0  0  0  0
  7 12  1  0  0  0  0
  8  9  1  0  0  0  0
  9 10  2  0  0  0  0
 10 11  1  0  0  0  0
 11 12  2  0  0  0  0
M  END
>  <CHROM.1>
-1.70679792,26.01068968,-0.92824988,-2.92635732,-0.32385586,-0.45811921

>  <Name>
ligand

>  <RI>
0

>  <Rbt.Current_Directory>
/home/itssahil/PROJECTS/Mol_Feturizer/Test_systems_manuscript/rnas/4lx5

>  <Rbt.Executable>
rbdock ($Id: //depot/dev/client3/rdock/2013.1/src/exe/rbdock.cxx#4 $)

>  <Rbt.Library>
libRbt.so (2013.1, Build901 2013/11/27)

>  <Rbt.Parameter_File>
/export/apps/rDock/src/rDock_2013.1_src/data/scripts/dock_solv.prm

>  <Rbt.Receptor>
prm/blind_docking_100.prm

>  <SCORE>
-8.04847

>  <SCORE.INTER>
-8.04847

>  <SCORE.INTER.CONST>
1

>  <SCORE.INTER.POLAR>
0

>  <SCORE.INTER.ROT>
0

>  <SCORE.INTER.SOLV>
4.21646

>  <SCORE.INTER.VDW>
-10.3711

>  <SCORE.INTER.norm>
-0.670706

>  <SCORE.INTRA>
0

>  <SCORE.INTRA.DIHEDRAL>
0

>  <SCORE.INTRA.DIHEDRAL.0>
0

>  <SCORE.INTRA.POLAR>
0

>  <SCORE.INTRA.POLAR.0>
0

>  <SCORE.INTRA.REPUL>
0

>  <SCORE.INTRA.REPUL.0>
0

>  <SCORE.INTRA.SOLV>
0

>  <SCORE.INTRA.SOLV.lig_0>
-48.1583

>  <SCORE.INTRA.VDW>
0

>  <SCORE.INTRA.VDW.0>
0

>  <SCORE.INTRA.norm>
0

>  <SCORE.RESTR>
0

>  <SCORE.RESTR.CAVITY>
0

>  <SCORE.RESTR.norm>
0

>  <SCORE.SYSTEM>
0

>  <SCORE.SYSTEM.CONST>
0

>  <SCORE.SYSTEM.DIHEDRAL>
0

>  <SCORE.SYSTEM.SOLV>
0

>  <SCORE.SYSTEM.norm>
0

>  <SCORE.heavy>
12

>  <SCORE.norm>
-0.670706

>  <RMSD>
12.834

$$$$
ligand
 OpenBabel02271912143D
libRbt.so/2013.1/901 2013/11/27
 12 13  0  0  0  0  0  0  0  0999 V2000
   -3.4190   24.9138   -1.0033 C   0  0  0  0  0  0  0  0  0  0  0  0
   -2.5311   26.9077   -1.8224 C   0  0  0  0  0  0  0  0  0  0  0  0
   -4.4444   24.0706   -0.9236 N   0  0  0  0  0  0  0  0  0  0  0  0
   -2.6278   28.0571   -2.4996 N   0  0  0  0  0  0  0  0  0  0  0  0
   -3.5600   26.0572   -1.7089 N   0  0  0  0  0  0  0  0  0  0  0  0
   -2.2488   24.6025   -0.4030 N   0  0  0  0  0  0  0  0  0  0  0  0
    0.9690   27.1892   -0.6660 N   0  0  0  0  0  0  0  0  0  0  0  0
    1.0799   25.9895    0.0537 C   0  0  0  0  0  0  0  0  0  0  0  0
   -0.0284   25.1156    0.1464 N   0  0  0  0  0  0  0  0  0  0  0  0
   -1.1814   25.4359   -0.4797 C   0  0  0  0  0  0  0  0  0  0  0  0
   -1.3044   26.6221   -1.2104 C   0  0  0  0  0  0  0  0  0  0  0  0
   -0.2385   27.5138   -1.3153 C   0  0  0  0  0  0  0  0  0  0  0  0
  1  3  1  0  0  0  0
  1  5  1  0  0  0  0
  1  6  2  0  0  0  0
  2  5  2  0  0  0  0
  2 11  1  0  0  0  0
  2  4  1  0  0  0  0
  6 10  1  0  0  0  0
  7  8  2  0  0  0  0
  7 12  1  0  0  0  0
  8  9  1  0  0  0  0
  9 10  2  0  0  0  0
 10 11  1  0  0  0  0
 11 12  2  0  0  0  0
M  END
>  <CHROM.1>
-1.65568585,26.02494562,-0.98777553,-2.94961097,-0.31366434,-0.51734613

>  <Name>
ligand

>  <RI>
0

>  <Rbt.Current_Directory>
/home/itssahil/PROJECTS/Mol_Feturizer/Test_systems_manuscript/rnas/4lx5

>  <Rbt.Executable>
rbdock ($Id: //depot/dev/client3/rdock/2013.1/src/exe/rbdock.cxx#4 $)

>  <Rbt.Library>
libRbt.so (2013.1, Build901 2013/11/27)

>  <Rbt.Parameter_File>
/export/apps/rDock/src/rDock_2013.1_src/data/scripts/dock_solv.prm

>  <Rbt.Receptor>
prm/blind_docking_100.prm

>  <SCORE>
-7.98926

>  <SCORE.INTER>
-7.98926

>  <SCORE.INTER.CONST>
1

>  <SCORE.INTER.POLAR>
0

>  <SCORE.INTER.ROT>
0

>  <SCORE.INTER.SOLV>
4.13266

>  <SCORE.INTER.VDW>
-10.3037

>  <SCORE.INTER.norm>
-0.665772

>  <SCORE.INTRA>
0

>  <SCORE.INTRA.DIHEDRAL>
0

>  <SCORE.INTRA.DIHEDRAL.0>
0

>  <SCORE.INTRA.POLAR>
0

>  <SCORE.INTRA.POLAR.0>
0

>  <SCORE.INTRA.REPUL>
0

>  <SCORE.INTRA.REPUL.0>
0

>  <SCORE.INTRA.SOLV>
0

>  <SCORE.INTRA.SOLV.lig_0>
-48.1583

>  <SCORE.INTRA.VDW>
0

>  <SCORE.INTRA.VDW.0>
0

>  <SCORE.INTRA.norm>
0

>  <SCORE.RESTR>
0

>  <SCORE.RESTR.CAVITY>
0

>  <SCORE.RESTR.norm>
0

>  <SCORE.SYSTEM>
0

>  <SCORE.SYSTEM.CONST>
0

>  <SCORE.SYSTEM.DIHEDRAL>
0

>  <SCORE.SYSTEM.SOLV>
0

>  <SCORE.SYSTEM.norm>
0

>  <SCORE.heavy>
12

>  <SCORE.norm>
-0.665772

>  <RMSD>
12.837

$$$$
ligand
 OpenBabel02271912143D
libRbt.so/2013.1/901 2013/11/27
 12 13  0  0  0  0  0  0  0  0999 V2000
   -3.4520   24.8623   -1.0034 C   0  0  0  0  0  0  0  0  0  0  0  0
   -2.6162   26.9180   -1.7179 C   0  0  0  0  0  0  0  0  0  0  0  0
   -4.4555   23.9902   -0.9678 N   0  0  0  0  0  0  0  0  0  0  0  0
   -2.7429   28.0981   -2.3345 N   0  0  0  0  0  0  0  0  0  0  0  0
   -3.6229   26.0368   -1.6488 N   0  0  0  0  0  0  0  0  0  0  0  0
   -2.2736   24.5503   -0.4199 N   0  0  0  0  0  0  0  0  0  0  0  0
    0.8770   27.2285   -0.5477 N   0  0  0  0  0  0  0  0  0  0  0  0
    1.0192   25.9963    0.1089 C   0  0  0  0  0  0  0  0  0  0  0  0
   -0.0663   25.0907    0.1558 N   0  0  0  0  0  0  0  0  0  0  0  0
   -1.2278   25.4136   -0.4530 C   0  0  0  0  0  0  0  0  0  0  0  0
   -1.3819   26.6325   -1.1212 C   0  0  0  0  0  0  0  0  0  0  0  0
   -0.3392   27.5554   -1.1795 C   0  0  0  0  0  0  0  0  0  0  0  0
  1  3  1  0  0  0  0
  1  5  1  0  0  0  0
  1  6  2  0  0  0  0
  2  5  2  0  0  0  0
  2 11  1  0  0  0  0
  2  4  1  0  0  0  0
  6 10  1  0  0  0  0
  7  8  2  0  0  0  0
  7 12  1  0  0  0  0
  8  9  1  0  0  0  0
  9 10  2  0  0  0  0
 10 11  1  0  0  0  0
 11 12  2  0  0  0  0
M  END
>  <CHROM.1>
-1.71758987,26.01581250,-0.92995267,-2.92562627,-0.32522047,-0.45792433

>  <Name>
ligand

>  <RI>
0

>  <Rbt.Current_Directory>
/home/itssahil/PROJECTS/Mol_Feturizer/Test_systems_manuscript/rnas/4lx5

>  <Rbt.Executable>
rbdock ($Id: //depot/dev/client3/rdock/2013.1/src/exe/rbdock.cxx#4 $)

>  <Rbt.Library>
libRbt.so (2013.1, Build901 2013/11/27)

>  <Rbt.Parameter_File>
/export/apps/rDock/src/rDock_2013.1_src/data/scripts/dock_solv.prm

>  <Rbt.Receptor>
prm/blind_docking_60.prm

>  <SCORE>
-8.05075

>  <SCORE.INTER>
-8.05075

>  <SCORE.INTER.CONST>
1

>  <SCORE.INTER.POLAR>
0

>  <SCORE.INTER.ROT>
0

>  <SCORE.INTER.SOLV>
4.18512

>  <SCORE.INTER.VDW>
-10.3622

>  <SCORE.INTER.norm>
-0.670896

>  <SCORE.INTRA>
0

>  <SCORE.INTRA.DIHEDRAL>
0

>  <SCORE.INTRA.DIHEDRAL.0>
0

>  <SCORE.INTRA.POLAR>
0

>  <SCORE.INTRA.POLAR.0>
0

>  <SCORE.INTRA.REPUL>
0

>  <SCORE.INTRA.REPUL.0>
0

>  <SCORE.INTRA.SOLV>
0

>  <SCORE.INTRA.SOLV.lig_0>
-48.1583

>  <SCORE.INTRA.VDW>
0

>  <SCORE.INTRA.VDW.0>
0

>  <SCORE.INTRA.norm>
0

>  <SCORE.RESTR>
0

>  <SCORE.RESTR.CAVITY>
0

>  <SCORE.RESTR.norm>
0

>  <SCORE.SYSTEM>
0

>  <SCORE.SYSTEM.CONST>
0

>  <SCORE.SYSTEM.DIHEDRAL>
0

>  <SCORE.SYSTEM.SOLV>
0

>  <SCORE.SYSTEM.norm>
0

>  <SCORE.heavy>
12

>  <SCORE.norm>
-0.670896

>  <RMSD>
12.845

$$$$
ligand
 OpenBabel02271912143D
libRbt.so/2013.1/901 2013/11/27
 12 13  0  0  0  0  0  0  0  0999 V2000
   -3.4450   24.9202   -1.0424 C   0  0  0  0  0  0  0  0  0  0  0  0
   -2.5585   26.9617   -1.7363 C   0  0  0  0  0  0  0  0  0  0  0  0
   -4.4657   24.0678   -1.0251 N   0  0  0  0  0  0  0  0  0  0  0  0
   -2.6529   28.1462   -2.3503 N   0  0  0  0  0  0  0  0  0  0  0  0
   -3.5832   26.1001   -1.6858 N   0  0  0  0  0  0  0  0  0  0  0  0
   -2.2817   24.5831   -0.4425 N   0  0  0  0  0  0  0  0  0  0  0  0
    0.9220   27.1997   -0.5128 N   0  0  0  0  0  0  0  0  0  0  0  0
    1.0302   25.9626    0.1411 C   0  0  0  0  0  0  0  0  0  0  0  0
   -0.0733   25.0783    0.1683 N   0  0  0  0  0  0  0  0  0  0  0  0
   -1.2190   25.4259   -0.4566 C   0  0  0  0  0  0  0  0  0  0  0  0
   -1.3392   26.6500   -1.1224 C   0  0  0  0  0  0  0  0  0  0  0  0
   -0.2780   27.5525   -1.1615 C   0  0  0  0  0  0  0  0  0  0  0  0
  1  3  1  0  0  0  0
  1  5  1  0  0  0  0
  1  6  2  0  0  0  0
  2  5  2  0  0  0  0
  2 11  1  0  0  0  0
  2  4  1  0  0  0  0
  6 10  1  0  0  0  0
  7  8  2  0  0  0  0
  7 12  1  0  0  0  0
  8  9  1  0  0  0  0
  9 10  2  0  0  0  0
 10 11  1  0  0  0  0
 11 12  2  0  0  0  0
M  END
>  <CHROM.1>
-1.68968763,26.03932733,-0.93852148,-2.95115308,-0.33001049,-0.46245828

>  <Name>
ligand

>  <RI>
0

>  <Rbt.Current_Directory>
/home/itssahil/PROJECTS/Mol_Feturizer/Test_systems_manuscript/rnas/4lx5

>  <Rbt.Executable>
rbdock ($Id: //depot/dev/client3/rdock/2013.1/src/exe/rbdock.cxx#4 $)

>  <Rbt.Library>
libRbt.so (2013.1, Build901 2013/11/27)

>  <Rbt.Parameter_File>
/export/apps/rDock/src/rDock_2013.1_src/data/scripts/dock_solv.prm

>  <Rbt.Receptor>
prm/blind_docking_80.prm

>  <SCORE>
-8.04986

>  <SCORE.INTER>
-8.04986

>  <SCORE.INTER.CONST>
1

>  <SCORE.INTER.POLAR>
0

>  <SCORE.INTER.ROT>
0

>  <SCORE.INTER.SOLV>
3.92079

>  <SCORE.INTER.VDW>
-10.2735

>  <SCORE.INTER.norm>
-0.670821

>  <SCORE.INTRA>
0

>  <SCORE.INTRA.DIHEDRAL>
0

>  <SCORE.INTRA.DIHEDRAL.0>
0

>  <SCORE.INTRA.POLAR>
0

>  <SCORE.INTRA.POLAR.0>
0

>  <SCORE.INTRA.REPUL>
0

>  <SCORE.INTRA.REPUL.0>
0

>  <SCORE.INTRA.SOLV>
0

>  <SCORE.INTRA.SOLV.lig_0>
-48.1583

>  <SCORE.INTRA.VDW>
0

>  <SCORE.INTRA.VDW.0>
0

>  <SCORE.INTRA.norm>
0

>  <SCORE.RESTR>
0

>  <SCORE.RESTR.CAVITY>
0

>  <SCORE.RESTR.norm>
0

>  <SCORE.SYSTEM>
0

>  <SCORE.SYSTEM.CONST>
0

>  <SCORE.SYSTEM.DIHEDRAL>
0

>  <SCORE.SYSTEM.SOLV>
0

>  <SCORE.SYSTEM.norm>
0

>  <SCORE.heavy>
12

>  <SCORE.norm>
-0.670821

>  <RMSD>
12.845

$$$$
ligand
 OpenBabel02271912143D
libRbt.so/2013.1/901 2013/11/27
 12 13  0  0  0  0  0  0  0  0999 V2000
   -0.2144   26.7075   -0.7022 C   0  0  0  0  0  0  0  0  0  0  0  0
   -2.2551   27.2427   -1.6942 C   0  0  0  0  0  0  0  0  0  0  0  0
    1.0248   27.0665   -0.3793 N   0  0  0  0  0  0  0  0  0  0  0  0
   -3.0608   28.0637   -2.3766 N   0  0  0  0  0  0  0  0  0  0  0  0
   -0.9956   27.5754   -1.3816 N   0  0  0  0  0  0  0  0  0  0  0  0
   -0.6801   25.4965   -0.3236 N   0  0  0  0  0  0  0  0  0  0  0  0
   -4.5432   24.3683   -1.2820 N   0  0  0  0  0  0  0  0  0  0  0  0
   -3.7044   23.4953   -0.5722 C   0  0  0  0  0  0  0  0  0  0  0  0
   -2.3818   23.8856   -0.2571 N   0  0  0  0  0  0  0  0  0  0  0  0
   -1.9444   25.1089   -0.6259 C   0  0  0  0  0  0  0  0  0  0  0  0
   -2.7716   25.9950   -1.3236 C   0  0  0  0  0  0  0  0  0  0  0  0
   -4.0767   25.6423   -1.6620 C   0  0  0  0  0  0  0  0  0  0  0  0
  1  3  1  0  0  0  0
  1  5  1  0  0  0  0
  1  6  2  0  0  0  0
  2  5  2  0  0  0  0
  2 11  1  0  0  0  0
  2  4  1  0  0  0  0
  6 10  1  0  0  0  0
  7  8  2  0  0  0  0
  7 12  1  0  0  0  0
  8  9  1  0  0  0  0
  9 10  2  0  0  0  0
 10 11  1  0  0  0  0
 11 12  2  0  0  0  0
M  END
>  <CHROM.1>
-2.10593830,25.90177372,-1.04466084,-0.57565366,0.33110988,2.72160817

>  <Name>
ligand

>  <RI>
0

>  <Rbt.Current_Directory>
/home/itssahil/PROJECTS/Mol_Feturizer/Test_systems_manuscript/rnas/4lx5

>  <Rbt.Executable>
rbdock ($Id: //depot/dev/client3/rdock/2013.1/src/exe/rbdock.cxx#4 $)

>  <Rbt.Library>
libRbt.so (2013.1, Build901 2013/11/27)

>  <Rbt.Parameter_File>
/export/apps/rDock/src/rDock_2013.1_src/data/scripts/dock_solv.prm

>  <Rbt.Receptor>
prm/blind_docking_60.prm

>  <SCORE>
-7.43141

>  <SCORE.INTER>
-7.43141

>  <SCORE.INTER.CONST>
1

>  <SCORE.INTER.POLAR>
0

>  <SCORE.INTER.ROT>
0

>  <SCORE.INTER.SOLV>
3.52125

>  <SCORE.INTER.VDW>
-9.72803

>  <SCORE.INTER.norm>
-0.619284

>  <SCORE.INTRA>
0

>  <SCORE.INTRA.DIHEDRAL>
0

>  <SCORE.INTRA.DIHEDRAL.0>
0

>  <SCORE.INTRA.POLAR>
0

>  <SCORE.INTRA.POLAR.0>
0

>  <SCORE.INTRA.REPUL>
0

>  <SCORE.INTRA.REPUL.0>
0

>  <SCORE.INTRA.SOLV>
0

>  <SCORE.INTRA.SOLV.lig_0>
-48.1583

>  <SCORE.INTRA.VDW>
0

>  <SCORE.INTRA.VDW.0>
0

>  <SCORE.INTRA.norm>
0

>  <SCORE.RESTR>
0

>  <SCORE.RESTR.CAVITY>
0

>  <SCORE.RESTR.norm>
0

>  <SCORE.SYSTEM>
0

>  <SCORE.SYSTEM.CONST>
0

>  <SCORE.SYSTEM.DIHEDRAL>
0

>  <SCORE.SYSTEM.SOLV>
0

>  <SCORE.SYSTEM.norm>
0

>  <SCORE.heavy>
12

>  <SCORE.norm>
-0.619284

>  <RMSD>
13.041

$$$$
ligand
 OpenBabel02271912143D
libRbt.so/2013.1/901 2013/11/27
 12 13  0  0  0  0  0  0  0  0999 V2000
   -0.1711   26.6492   -1.1683 C   0  0  0  0  0  0  0  0  0  0  0  0
   -2.2976   27.1828   -1.9609 C   0  0  0  0  0  0  0  0  0  0  0  0
    1.1094   26.9803   -1.0286 N   0  0  0  0  0  0  0  0  0  0  0  0
   -3.1519   27.9737   -2.6194 N   0  0  0  0  0  0  0  0  0  0  0  0
   -0.9991   27.4859   -1.8313 N   0  0  0  0  0  0  0  0  0  0  0  0
   -0.6280   25.4996   -0.6239 N   0  0  0  0  0  0  0  0  0  0  0  0
   -4.6143   24.4630   -1.0107 N   0  0  0  0  0  0  0  0  0  0  0  0
   -3.7256   23.6214   -0.3241 C   0  0  0  0  0  0  0  0  0  0  0  0
   -2.3624   23.9792   -0.2048 N   0  0  0  0  0  0  0  0  0  0  0  0
   -1.9319   25.1432   -0.7375 C   0  0  0  0  0  0  0  0  0  0  0  0
   -2.8071   25.9983   -1.4148 C   0  0  0  0  0  0  0  0  0  0  0  0
   -4.1547   25.6751   -1.5627 C   0  0  0  0  0  0  0  0  0  0  0  0
  1  3  1  0  0  0  0
  1  5  1  0  0  0  0
  1  6  2  0  0  0  0
  2  5  2  0  0  0  0
  2 11  1  0  0  0  0
  2  4  1  0  0  0  0
  6 10  1  0  0  0  0
  7  8  2  0  0  0  0
  7 12  1  0  0  0  0
  8  9  1  0  0  0  0
  9 10  2  0  0  0  0
 10 11  1  0  0  0  0
 11 12  2  0  0  0  0
M  END
>  <CHROM.1>
-2.11613283,25.90112489,-1.20820963,-0.59468845,0.20668246,2.63301465

>  <Name>
ligand

>  <RI>
0

>  <Rbt.Current_Directory>
/home/itssahil/PROJECTS/Mol_Feturizer/Test_systems_manuscript/rnas/4lx5

>  <Rbt.Executable>
rbdock ($Id: //depot/dev/client3/rdock/2013.1/src/exe/rbdock.cxx#4 $)

>  <Rbt.Library>
libRbt.so (2013.1, Build901 2013/11/27)

>  <Rbt.Parameter_File>
/export/apps/rDock/src/rDock_2013.1_src/data/scripts/dock_solv.prm

>  <Rbt.Receptor>
prm/blind_docking_100.prm

>  <SCORE>
-7.51045

>  <SCORE.INTER>
-7.51045

>  <SCORE.INTER.CONST>
1

>  <SCORE.INTER.POLAR>
0

>  <SCORE.INTER.ROT>
0

>  <SCORE.INTER.SOLV>
3.45693

>  <SCORE.INTER.VDW>
-9.75928

>  <SCORE.INTER.norm>
-0.625871

>  <SCORE.INTRA>
0

>  <SCORE.INTRA.DIHEDRAL>
0

>  <SCORE.INTRA.DIHEDRAL.0>
0

>  <SCORE.INTRA.POLAR>
0

>  <SCORE.INTRA.POLAR.0>
0

>  <SCORE.INTRA.REPUL>
0

>  <SCORE.INTRA.REPUL.0>
0

>  <SCORE.INTRA.SOLV>
0

>  <SCORE.INTRA.SOLV.lig_0>
-48.1583

>  <SCORE.INTRA.VDW>
0

>  <SCORE.INTRA.VDW.0>
0

>  <SCORE.INTRA.norm>
0

>  <SCORE.RESTR>
0

>  <SCORE.RESTR.CAVITY>
0

>  <SCORE.RESTR.norm>
0

>  <SCORE.SYSTEM>
0

>  <SCORE.SYSTEM.CONST>
0

>  <SCORE.SYSTEM.DIHEDRAL>
0

>  <SCORE.SYSTEM.SOLV>
0

>  <SCORE.SYSTEM.norm>
0

>  <SCORE.heavy>
12

>  <SCORE.norm>
-0.625871

>  <RMSD>
13.058

$$$$
ligand
 OpenBabel02271912143D
libRbt.so/2013.1/901 2013/11/27
 12 13  0  0  0  0  0  0  0  0999 V2000
   -0.6750   26.7239   -1.4957 C   0  0  0  0  0  0  0  0  0  0  0  0
   -2.9133   27.1412   -1.9965 C   0  0  0  0  0  0  0  0  0  0  0  0
    0.5926   27.1257   -1.5205 N   0  0  0  0  0  0  0  0  0  0  0  0
   -3.8889   27.8864   -2.5275 N   0  0  0  0  0  0  0  0  0  0  0  0
   -1.6277   27.5162   -2.0340 N   0  0  0  0  0  0  0  0  0  0  0  0
   -0.9925   25.5475   -0.9109 N   0  0  0  0  0  0  0  0  0  0  0  0
   -4.9319   24.2903   -0.7861 N   0  0  0  0  0  0  0  0  0  0  0  0
   -3.9157   23.4964   -0.2323 C   0  0  0  0  0  0  0  0  0  0  0  0
   -2.5704   23.9296   -0.2879 N   0  0  0  0  0  0  0  0  0  0  0  0
   -2.2783   25.1188   -0.8575 C   0  0  0  0  0  0  0  0  0  0  0  0
   -3.2807   25.9270   -1.4035 C   0  0  0  0  0  0  0  0  0  0  0  0
   -4.6161   25.5293   -1.3780 C   0  0  0  0  0  0  0  0  0  0  0  0
  1  3  1  0  0  0  0
  1  5  1  0  0  0  0
  1  6  2  0  0  0  0
  2  5  2  0  0  0  0
  2 11  1  0  0  0  0
  2  4  1  0  0  0  0
  6 10  1  0  0  0  0
  7  8  2  0  0  0  0
  7 12  1  0  0  0  0
  8  9  1  0  0  0  0
  9 10  2  0  0  0  0
 10 11  1  0  0  0  0
 11 12  2  0  0  0  0
M  END
>  <CHROM.1>
-2.56425450,25.86776240,-1.29035803,-0.70775702,0.11737074,2.66039576

>  <Name>
ligand

>  <RI>
0

>  <Rbt.Current_Directory>
/home/itssahil/PROJECTS/Mol_Feturizer/Test_systems_manuscript/rnas/4lx5

>  <Rbt.Executable>
rbdock ($Id: //depot/dev/client3/rdock/2013.1/src/exe/rbdock.cxx#4 $)

>  <Rbt.Library>
libRbt.so (2013.1, Build901 2013/11/27)

>  <Rbt.Parameter_File>
/export/apps/rDock/src/rDock_2013.1_src/data/scripts/dock_solv.prm

>  <Rbt.Receptor>
prm/blind_docking_100.prm

>  <SCORE>
-7.49106

>  <SCORE.INTER>
-7.49106

>  <SCORE.INTER.CONST>
1

>  <SCORE.INTER.POLAR>
0

>  <SCORE.INTER.ROT>
0

>  <SCORE.INTER.SOLV>
2.24544

>  <SCORE.INTER.VDW>
-9.34252

>  <SCORE.INTER.norm>
-0.624255

>  <SCORE.INTRA>
0

>  <SCORE.INTRA.DIHEDRAL>
0

>  <SCORE.INTRA.DIHEDRAL.0>
0

>  <SCORE.INTRA.POLAR>
0

>  <SCORE.INTRA.POLAR.0>
0

>  <SCORE.INTRA.REPUL>
0

>  <SCORE.INTRA.REPUL.0>
0

>  <SCORE.INTRA.SOLV>
0

>  <SCORE.INTRA.SOLV.lig_0>
-48.1583

>  <SCORE.INTRA.VDW>
0

>  <SCORE.INTRA.VDW.0>
0

>  <SCORE.INTRA.norm>
0

>  <SCORE.RESTR>
0

>  <SCORE.RESTR.CAVITY>
0

>  <SCORE.RESTR.norm>
0

>  <SCORE.SYSTEM>
0

>  <SCORE.SYSTEM.CONST>
0

>  <SCORE.SYSTEM.DIHEDRAL>
0

>  <SCORE.SYSTEM.SOLV>
0

>  <SCORE.SYSTEM.norm>
0

>  <SCORE.heavy>
12

>  <SCORE.norm>
-0.624255

>  <RMSD>
13.319

$$$$
ligand
 OpenBabel02271912143D
libRbt.so/2013.1/901 2013/11/27
 12 13  0  0  0  0  0  0  0  0999 V2000
   -3.7101   26.4251   -1.8476 C   0  0  0  0  0  0  0  0  0  0  0  0
   -1.8211   27.4848   -2.7100 C   0  0  0  0  0  0  0  0  0  0  0  0
   -5.0265   26.2383   -1.8797 N   0  0  0  0  0  0  0  0  0  0  0  0
   -1.2219   28.3503   -3.5352 N   0  0  0  0  0  0  0  0  0  0  0  0
   -3.1481   27.3011   -2.7090 N   0  0  0  0  0  0  0  0  0  0  0  0
   -2.9553   25.7190   -0.9768 N   0  0  0  0  0  0  0  0  0  0  0  0
    1.1461   26.2525   -0.8811 N   0  0  0  0  0  0  0  0  0  0  0  0
    0.5276   25.3471   -0.0051 C   0  0  0  0  0  0  0  0  0  0  0  0
   -0.8764   25.1781   -0.0383 N   0  0  0  0  0  0  0  0  0  0  0  0
   -1.6089   25.8776   -0.9316 C   0  0  0  0  0  0  0  0  0  0  0  0
   -1.0065   26.7752   -1.8190 C   0  0  0  0  0  0  0  0  0  0  0  0
    0.3724   26.9773   -1.8091 C   0  0  0  0  0  0  0  0  0  0  0  0
  1  3  1  0  0  0  0
  1  5  1  0  0  0  0
  1  6  2  0  0  0  0
  2  5  2  0  0  0  0
  2 11  1  0  0  0  0
  2  4  1  0  0  0  0
  6 10  1  0  0  0  0
  7  8  2  0  0  0  0
  7 12  1  0  0  0  0
  8  9  1  0  0  0  0
  9 10  2  0  0  0  0
 10 11  1  0  0  0  0
 11 12  2  0  0  0  0
M  END
>  <CHROM.1>
-1.64162912,26.49484298,-1.60094982,2.79160030,-0.10933718,-0.82567134

>  <Name>
ligand

>  <RI>
0

>  <Rbt.Current_Directory>
/home/itssahil/PROJECTS/Mol_Feturizer/Test_systems_manuscript/rnas/4lx5

>  <Rbt.Executable>
rbdock ($Id: //depot/dev/client3/rdock/2013.1/src/exe/rbdock.cxx#4 $)

>  <Rbt.Library>
libRbt.so (2013.1, Build901 2013/11/27)

>  <Rbt.Parameter_File>
/export/apps/rDock/src/rDock_2013.1_src/data/scripts/dock_solv.prm

>  <Rbt.Receptor>
prm/blind_docking_60.prm

>  <SCORE>
-7.33314

>  <SCORE.INTER>
-7.33314

>  <SCORE.INTER.CONST>
1

>  <SCORE.INTER.POLAR>
0

>  <SCORE.INTER.ROT>
0

>  <SCORE.INTER.SOLV>
2.74078

>  <SCORE.INTER.VDW>
-9.40236

>  <SCORE.INTER.norm>
-0.611095

>  <SCORE.INTRA>
0

>  <SCORE.INTRA.DIHEDRAL>
0

>  <SCORE.INTRA.DIHEDRAL.0>
0

>  <SCORE.INTRA.POLAR>
0

>  <SCORE.INTRA.POLAR.0>
0

>  <SCORE.INTRA.REPUL>
0

>  <SCORE.INTRA.REPUL.0>
0

>  <SCORE.INTRA.SOLV>
0

>  <SCORE.INTRA.SOLV.lig_0>
-48.1583

>  <SCORE.INTRA.VDW>
0

>  <SCORE.INTRA.VDW.0>
0

>  <SCORE.INTRA.norm>
0

>  <SCORE.RESTR>
0

>  <SCORE.RESTR.CAVITY>
0

>  <SCORE.RESTR.norm>
0

>  <SCORE.SYSTEM>
0

>  <SCORE.SYSTEM.CONST>
0

>  <SCORE.SYSTEM.DIHEDRAL>
0

>  <SCORE.SYSTEM.SOLV>
0

>  <SCORE.SYSTEM.norm>
0

>  <SCORE.heavy>
12

>  <SCORE.norm>
-0.611095

>  <RMSD>
13.360

$$$$
ligand
 OpenBabel02271912143D
libRbt.so/2013.1/901 2013/11/27
 12 13  0  0  0  0  0  0  0  0999 V2000
   -1.7192   25.6912   -0.7097 C   0  0  0  0  0  0  0  0  0  0  0  0
   -3.8566   26.5745   -1.0031 C   0  0  0  0  0  0  0  0  0  0  0  0
   -0.4006   25.8519   -0.7757 N   0  0  0  0  0  0  0  0  0  0  0  0
   -4.6947   27.5479   -1.3760 N   0  0  0  0  0  0  0  0  0  0  0  0
   -2.5261   26.7073   -1.0860 N   0  0  0  0  0  0  0  0  0  0  0  0
   -2.2289   24.5295   -0.2436 N   0  0  0  0  0  0  0  0  0  0  0  0
   -6.3262   24.0159    0.0078 N   0  0  0  0  0  0  0  0  0  0  0  0
   -5.4567   22.9846    0.3949 C   0  0  0  0  0  0  0  0  0  0  0  0
   -4.0573   23.1654    0.2966 N   0  0  0  0  0  0  0  0  0  0  0  0
   -3.5692   24.3424   -0.1511 C   0  0  0  0  0  0  0  0  0  0  0  0
   -4.4222   25.3841   -0.5299 C   0  0  0  0  0  0  0  0  0  0  0  0
   -5.8065   25.2399   -0.4579 C   0  0  0  0  0  0  0  0  0  0  0  0
  1  3  1  0  0  0  0
  1  5  1  0  0  0  0
  1  6  2  0  0  0  0
  2  5  2  0  0  0  0
  2 11  1  0  0  0  0
  2  4  1  0  0  0  0
  6 10  1  0  0  0  0
  7  8  2  0  0  0  0
  7 12  1  0  0  0  0
  8  9  1  0  0  0  0
  9 10  2  0  0  0  0
 10 11  1  0  0  0  0
 11 12  2  0  0  0  0
M  END
>  <CHROM.1>
-3.72594667,25.17978583,-0.47407533,-0.55859683,-0.01396054,2.77475326

>  <Name>
ligand

>  <RI>
0

>  <Rbt.Current_Directory>
/home/itssahil/PROJECTS/Mol_Feturizer/Test_systems_manuscript/rnas/4lx5

>  <Rbt.Executable>
rbdock ($Id: //depot/dev/client3/rdock/2013.1/src/exe/rbdock.cxx#4 $)

>  <Rbt.Library>
libRbt.so (2013.1, Build901 2013/11/27)

>  <Rbt.Parameter_File>
/export/apps/rDock/src/rDock_2013.1_src/data/scripts/dock_solv.prm

>  <Rbt.Receptor>
prm/blind_docking_80.prm

>  <SCORE>
-7.78002

>  <SCORE.INTER>
-7.78002

>  <SCORE.INTER.CONST>
1

>  <SCORE.INTER.POLAR>
0

>  <SCORE.INTER.ROT>
0

>  <SCORE.INTER.SOLV>
8.10103

>  <SCORE.INTER.VDW>
-11.487

>  <SCORE.INTER.norm>
-0.648335

>  <SCORE.INTRA>
0

>  <SCORE.INTRA.DIHEDRAL>
0

>  <SCORE.INTRA.DIHEDRAL.0>
0

>  <SCORE.INTRA.POLAR>
0

>  <SCORE.INTRA.POLAR.0>
0

>  <SCORE.INTRA.REPUL>
0

>  <SCORE.INTRA.REPUL.0>
0

>  <SCORE.INTRA.SOLV>
0

>  <SCORE.INTRA.SOLV.lig_0>
-48.1583

>  <SCORE.INTRA.VDW>
0

>  <SCORE.INTRA.VDW.0>
0

>  <SCORE.INTRA.norm>
0

>  <SCORE.RESTR>
0

>  <SCORE.RESTR.CAVITY>
0

>  <SCORE.RESTR.norm>
0

>  <SCORE.SYSTEM>
0

>  <SCORE.SYSTEM.CONST>
0

>  <SCORE.SYSTEM.DIHEDRAL>
0

>  <SCORE.SYSTEM.SOLV>
0

>  <SCORE.SYSTEM.norm>
0

>  <SCORE.heavy>
12

>  <SCORE.norm>
-0.648335

>  <RMSD>
13.467

$$$$
ligand
 OpenBabel02271912143D
libRbt.so/2013.1/901 2013/11/27
 12 13  0  0  0  0  0  0  0  0999 V2000
   -5.8179   10.8664   -0.3011 C   0  0  0  0  0  0  0  0  0  0  0  0
   -7.2669   12.4897    0.5356 C   0  0  0  0  0  0  0  0  0  0  0  0
   -5.5720    9.5870   -0.5686 N   0  0  0  0  0  0  0  0  0  0  0  0
   -8.4074   12.8701    1.1219 N   0  0  0  0  0  0  0  0  0  0  0  0
   -6.9893   11.2041    0.2811 N   0  0  0  0  0  0  0  0  0  0  0  0
   -4.9084   11.8073   -0.6391 N   0  0  0  0  0  0  0  0  0  0  0  0
   -5.6635   15.7981    0.1470 N   0  0  0  0  0  0  0  0  0  0  0  0
   -4.4600   15.4100   -0.4617 C   0  0  0  0  0  0  0  0  0  0  0  0
   -4.2061   14.0424   -0.7181 N   0  0  0  0  0  0  0  0  0  0  0  0
   -5.1383   13.1211   -0.3922 C   0  0  0  0  0  0  0  0  0  0  0  0
   -6.3474   13.4926    0.2045 C   0  0  0  0  0  0  0  0  0  0  0  0
   -6.6292   14.8287    0.4831 C   0  0  0  0  0  0  0  0  0  0  0  0
  1  3  1  0  0  0  0
  1  5  1  0  0  0  0
  1  6  2  0  0  0  0
  2  5  2  0  0  0  0
  2 11  1  0  0  0  0
  2  4  1  0  0  0  0
  6 10  1  0  0  0  0
  7  8  2  0  0  0  0
  7 12  1  0  0  0  0
  8  9  1  0  0  0  0
  9 10  2  0  0  0  0
 10 11  1  0  0  0  0
 11 12  2  0  0  0  0
M  END
>  <CHROM.1>
-5.95109704,12.92845112,-0.02846464,-1.78780689,0.43565797,0.10616613

>  <Name>
ligand

>  <RI>
0

>  <Rbt.Current_Directory>
/home/itssahil/PROJECTS/Mol_Feturizer/Test_systems_manuscript/rnas/4lx5

>  <Rbt.Executable>
rbdock ($Id: //depot/dev/client3/rdock/2013.1/src/exe/rbdock.cxx#4 $)

>  <Rbt.Library>
libRbt.so (2013.1, Build901 2013/11/27)

>  <Rbt.Parameter_File>
/export/apps/rDock/src/rDock_2013.1_src/data/scripts/dock_solv.prm

>  <Rbt.Receptor>
prm/blind_docking_20.prm

>  <SCORE>
-7.37363

>  <SCORE.INTER>
-7.37363

>  <SCORE.INTER.CONST>
1

>  <SCORE.INTER.POLAR>
0

>  <SCORE.INTER.ROT>
0

>  <SCORE.INTER.SOLV>
10.66

>  <SCORE.INTER.VDW>
-12.0691

>  <SCORE.INTER.norm>
-0.614469

>  <SCORE.INTRA>
0

>  <SCORE.INTRA.DIHEDRAL>
0

>  <SCORE.INTRA.DIHEDRAL.0>
0

>  <SCORE.INTRA.POLAR>
0

>  <SCORE.INTRA.POLAR.0>
0

>  <SCORE.INTRA.REPUL>
0

>  <SCORE.INTRA.REPUL.0>
0

>  <SCORE.INTRA.SOLV>
0

>  <SCORE.INTRA.SOLV.lig_0>
-48.1583

>  <SCORE.INTRA.VDW>
0

>  <SCORE.INTRA.VDW.0>
0

>  <SCORE.INTRA.norm>
0

>  <SCORE.RESTR>
0

>  <SCORE.RESTR.CAVITY>
0

>  <SCORE.RESTR.norm>
0

>  <SCORE.SYSTEM>
0

>  <SCORE.SYSTEM.CONST>
0

>  <SCORE.SYSTEM.DIHEDRAL>
0

>  <SCORE.SYSTEM.SOLV>
0

>  <SCORE.SYSTEM.norm>
0

>  <SCORE.heavy>
12

>  <SCORE.norm>
-0.614469

>  <RMSD>
13.544

$$$$
ligand
 OpenBabel02271912143D
libRbt.so/2013.1/901 2013/11/27
 12 13  0  0  0  0  0  0  0  0999 V2000
   -5.8004   10.8990   -0.2993 C   0  0  0  0  0  0  0  0  0  0  0  0
   -7.2760   12.4900    0.5531 C   0  0  0  0  0  0  0  0  0  0  0  0
   -5.5305    9.6257   -0.5725 N   0  0  0  0  0  0  0  0  0  0  0  0
   -8.4196   12.8453    1.1489 N   0  0  0  0  0  0  0  0  0  0  0  0
   -6.9741   11.2110    0.2925 N   0  0  0  0  0  0  0  0  0  0  0  0
   -4.9128   11.8593   -0.6410 N   0  0  0  0  0  0  0  0  0  0  0  0
   -5.7432   15.8315    0.1631 N   0  0  0  0  0  0  0  0  0  0  0  0
   -4.5365   15.4699   -0.4556 C   0  0  0  0  0  0  0  0  0  0  0  0
   -4.2568   14.1085   -0.7181 N   0  0  0  0  0  0  0  0  0  0  0  0
   -5.1675   13.1674   -0.3883 C   0  0  0  0  0  0  0  0  0  0  0  0
   -6.3796   13.5124    0.2183 C   0  0  0  0  0  0  0  0  0  0  0  0
   -6.6864   14.8417    0.5031 C   0  0  0  0  0  0  0  0  0  0  0  0
  1  3  1  0  0  0  0
  1  5  1  0  0  0  0
  1  6  2  0  0  0  0
  2  5  2  0  0  0  0
  2 11  1  0  0  0  0
  2  4  1  0  0  0  0
  6 10  1  0  0  0  0
  7  8  2  0  0  0  0
  7 12  1  0  0  0  0
  8  9  1  0  0  0  0
  9 10  2  0  0  0  0
 10 11  1  0  0  0  0
 11 12  2  0  0  0  0
M  END
>  <CHROM.1>
-5.97355477,12.95714403,-0.01925417,-1.76623223,0.44506132,0.10000690

>  <Name>
ligand

>  <RI>
0

>  <Rbt.Current_Directory>
/home/itssahil/PROJECTS/Mol_Feturizer/Test_systems_manuscript/rnas/4lx5

>  <Rbt.Executable>
rbdock ($Id: //depot/dev/client3/rdock/2013.1/src/exe/rbdock.cxx#4 $)

>  <Rbt.Library>
libRbt.so (2013.1, Build901 2013/11/27)

>  <Rbt.Parameter_File>
/export/apps/rDock/src/rDock_2013.1_src/data/scripts/dock_solv.prm

>  <Rbt.Receptor>
prm/blind_docking_20.prm

>  <SCORE>
-7.39466

>  <SCORE.INTER>
-7.39466

>  <SCORE.INTER.CONST>
1

>  <SCORE.INTER.POLAR>
0

>  <SCORE.INTER.ROT>
0

>  <SCORE.INTER.SOLV>
10.5221

>  <SCORE.INTER.VDW>
-12.0371

>  <SCORE.INTER.norm>
-0.616221

>  <SCORE.INTRA>
0

>  <SCORE.INTRA.DIHEDRAL>
0

>  <SCORE.INTRA.DIHEDRAL.0>
0

>  <SCORE.INTRA.POLAR>
0

>  <SCORE.INTRA.POLAR.0>
0

>  <SCORE.INTRA.REPUL>
0

>  <SCORE.INTRA.REPUL.0>
0

>  <SCORE.INTRA.SOLV>
0

>  <SCORE.INTRA.SOLV.lig_0>
-48.1583

>  <SCORE.INTRA.VDW>
0

>  <SCORE.INTRA.VDW.0>
0

>  <SCORE.INTRA.norm>
0

>  <SCORE.RESTR>
0

>  <SCORE.RESTR.CAVITY>
0

>  <SCORE.RESTR.norm>
0

>  <SCORE.SYSTEM>
0

>  <SCORE.SYSTEM.CONST>
0

>  <SCORE.SYSTEM.DIHEDRAL>
0

>  <SCORE.SYSTEM.SOLV>
0

>  <SCORE.SYSTEM.norm>
0

>  <SCORE.heavy>
12

>  <SCORE.norm>
-0.616221

>  <RMSD>
13.549

$$$$
ligand
 OpenBabel02271912143D
libRbt.so/2013.1/901 2013/11/27
 12 13  0  0  0  0  0  0  0  0999 V2000
   -5.8006   10.8944   -0.3004 C   0  0  0  0  0  0  0  0  0  0  0  0
   -7.2757   12.4867    0.5502 C   0  0  0  0  0  0  0  0  0  0  0  0
   -5.5310    9.6207   -0.5723 N   0  0  0  0  0  0  0  0  0  0  0  0
   -8.4192   12.8431    1.1455 N   0  0  0  0  0  0  0  0  0  0  0  0
   -6.9742   11.2074    0.2910 N   0  0  0  0  0  0  0  0  0  0  0  0
   -4.9126   11.8540   -0.6431 N   0  0  0  0  0  0  0  0  0  0  0  0
   -5.7417   15.8273    0.1567 N   0  0  0  0  0  0  0  0  0  0  0  0
   -4.5351   15.4646   -0.4615 C   0  0  0  0  0  0  0  0  0  0  0  0
   -4.2558   14.1028   -0.7226 N   0  0  0  0  0  0  0  0  0  0  0  0
   -5.1669   13.1624   -0.3918 C   0  0  0  0  0  0  0  0  0  0  0  0
   -6.3789   13.5085    0.2144 C   0  0  0  0  0  0  0  0  0  0  0  0
   -6.6853   14.8382    0.4978 C   0  0  0  0  0  0  0  0  0  0  0  0
  1  3  1  0  0  0  0
  1  5  1  0  0  0  0
  1  6  2  0  0  0  0
  2  5  2  0  0  0  0
  2 11  1  0  0  0  0
  2  4  1  0  0  0  0
  6 10  1  0  0  0  0
  7  8  2  0  0  0  0
  7 12  1  0  0  0  0
  8  9  1  0  0  0  0
  9 10  2  0  0  0  0
 10 11  1  0  0  0  0
 11 12  2  0  0  0  0
M  END
>  <CHROM.1>
-5.97303252,12.95285934,-0.02255249,-1.76659430,0.44496349,0.09909903

>  <Name>
ligand

>  <RI>
0

>  <Rbt.Current_Directory>
/home/itssahil/PROJECTS/Mol_Feturizer/Test_systems_manuscript/rnas/4lx5

>  <Rbt.Executable>
rbdock ($Id: //depot/dev/client3/rdock/2013.1/src/exe/rbdock.cxx#4 $)

>  <Rbt.Library>
libRbt.so (2013.1, Build901 2013/11/27)

>  <Rbt.Parameter_File>
/export/apps/rDock/src/rDock_2013.1_src/data/scripts/dock_solv.prm

>  <Rbt.Receptor>
prm/blind_docking_20.prm

>  <SCORE>
-7.39016

>  <SCORE.INTER>
-7.39016

>  <SCORE.INTER.CONST>
1

>  <SCORE.INTER.POLAR>
0

>  <SCORE.INTER.ROT>
0

>  <SCORE.INTER.SOLV>
10.5287

>  <SCORE.INTER.VDW>
-12.0364

>  <SCORE.INTER.norm>
-0.615847

>  <SCORE.INTRA>
0

>  <SCORE.INTRA.DIHEDRAL>
0

>  <SCORE.INTRA.DIHEDRAL.0>
0

>  <SCORE.INTRA.POLAR>
0

>  <SCORE.INTRA.POLAR.0>
0

>  <SCORE.INTRA.REPUL>
0

>  <SCORE.INTRA.REPUL.0>
0

>  <SCORE.INTRA.SOLV>
0

>  <SCORE.INTRA.SOLV.lig_0>
-48.1583

>  <SCORE.INTRA.VDW>
0

>  <SCORE.INTRA.VDW.0>
0

>  <SCORE.INTRA.norm>
0

>  <SCORE.RESTR>
0

>  <SCORE.RESTR.CAVITY>
0

>  <SCORE.RESTR.norm>
0

>  <SCORE.SYSTEM>
0

>  <SCORE.SYSTEM.CONST>
0

>  <SCORE.SYSTEM.DIHEDRAL>
0

>  <SCORE.SYSTEM.SOLV>
0

>  <SCORE.SYSTEM.norm>
0

>  <SCORE.heavy>
12

>  <SCORE.norm>
-0.615847

>  <RMSD>
13.551

$$$$
ligand
 OpenBabel02271912143D
libRbt.so/2013.1/901 2013/11/27
 12 13  0  0  0  0  0  0  0  0999 V2000
   -5.8020   10.8947   -0.2995 C   0  0  0  0  0  0  0  0  0  0  0  0
   -7.2760   12.4873    0.5522 C   0  0  0  0  0  0  0  0  0  0  0  0
   -5.5332    9.6210   -0.5723 N   0  0  0  0  0  0  0  0  0  0  0  0
   -8.4193   12.8440    1.1479 N   0  0  0  0  0  0  0  0  0  0  0  0
   -6.9754   11.2080    0.2922 N   0  0  0  0  0  0  0  0  0  0  0  0
   -4.9135   11.8540   -0.6416 N   0  0  0  0  0  0  0  0  0  0  0  0
   -5.7401   15.8273    0.1609 N   0  0  0  0  0  0  0  0  0  0  0  0
   -4.5338   15.4643   -0.4577 C   0  0  0  0  0  0  0  0  0  0  0  0
   -4.2553   14.1025   -0.7197 N   0  0  0  0  0  0  0  0  0  0  0  0
   -5.1670   13.1624   -0.3894 C   0  0  0  0  0  0  0  0  0  0  0  0
   -6.3787   13.5088    0.2171 C   0  0  0  0  0  0  0  0  0  0  0  0
   -6.6843   14.8385    0.5013 C   0  0  0  0  0  0  0  0  0  0  0  0
  1  3  1  0  0  0  0
  1  5  1  0  0  0  0
  1  6  2  0  0  0  0
  2  5  2  0  0  0  0
  2 11  1  0  0  0  0
  2  4  1  0  0  0  0
  6 10  1  0  0  0  0
  7  8  2  0  0  0  0
  7 12  1  0  0  0  0
  8  9  1  0  0  0  0
  9 10  2  0  0  0  0
 10 11  1  0  0  0  0
 11 12  2  0  0  0  0
M  END
>  <CHROM.1>
-5.97317823,12.95307046,-0.02030898,-1.76725059,0.44498412,0.10005141

>  <Name>
ligand

>  <RI>
0

>  <Rbt.Current_Directory>
/home/itssahil/PROJECTS/Mol_Feturizer/Test_systems_manuscript/rnas/4lx5

>  <Rbt.Executable>
rbdock ($Id: //depot/dev/client3/rdock/2013.1/src/exe/rbdock.cxx#4 $)

>  <Rbt.Library>
libRbt.so (2013.1, Build901 2013/11/27)

>  <Rbt.Parameter_File>
/export/apps/rDock/src/rDock_2013.1_src/data/scripts/dock_solv.prm

>  <Rbt.Receptor>
prm/blind_docking_20.prm

>  <SCORE>
-7.39391

>  <SCORE.INTER>
-7.39391

>  <SCORE.INTER.CONST>
1

>  <SCORE.INTER.POLAR>
0

>  <SCORE.INTER.ROT>
0

>  <SCORE.INTER.SOLV>
10.5338

>  <SCORE.INTER.VDW>
-12.0405

>  <SCORE.INTER.norm>
-0.616159

>  <SCORE.INTRA>
0

>  <SCORE.INTRA.DIHEDRAL>
0

>  <SCORE.INTRA.DIHEDRAL.0>
0

>  <SCORE.INTRA.POLAR>
0

>  <SCORE.INTRA.POLAR.0>
0

>  <SCORE.INTRA.REPUL>
0

>  <SCORE.INTRA.REPUL.0>
0

>  <SCORE.INTRA.SOLV>
0

>  <SCORE.INTRA.SOLV.lig_0>
-48.1583

>  <SCORE.INTRA.VDW>
0

>  <SCORE.INTRA.VDW.0>
0

>  <SCORE.INTRA.norm>
0

>  <SCORE.RESTR>
0

>  <SCORE.RESTR.CAVITY>
0

>  <SCORE.RESTR.norm>
0

>  <SCORE.SYSTEM>
0

>  <SCORE.SYSTEM.CONST>
0

>  <SCORE.SYSTEM.DIHEDRAL>
0

>  <SCORE.SYSTEM.SOLV>
0

>  <SCORE.SYSTEM.norm>
0

>  <SCORE.heavy>
12

>  <SCORE.norm>
-0.616159

>  <RMSD>
13.551

$$$$
ligand
 OpenBabel02271912143D
libRbt.so/2013.1/901 2013/11/27
 12 13  0  0  0  0  0  0  0  0999 V2000
   -5.8066   10.8815   -0.3023 C   0  0  0  0  0  0  0  0  0  0  0  0
   -7.2765   12.4783    0.5490 C   0  0  0  0  0  0  0  0  0  0  0  0
   -5.5412    9.6071   -0.5747 N   0  0  0  0  0  0  0  0  0  0  0  0
   -8.4189   12.8380    1.1445 N   0  0  0  0  0  0  0  0  0  0  0  0
   -6.9792   11.1981    0.2893 N   0  0  0  0  0  0  0  0  0  0  0  0
   -4.9155   11.8384   -0.6444 N   0  0  0  0  0  0  0  0  0  0  0  0
   -5.7316   15.8140    0.1574 N   0  0  0  0  0  0  0  0  0  0  0  0
   -4.5262   15.4477   -0.4610 C   0  0  0  0  0  0  0  0  0  0  0  0
   -4.2513   14.0852   -0.7227 N   0  0  0  0  0  0  0  0  0  0  0  0
   -5.1655   13.1475   -0.3924 C   0  0  0  0  0  0  0  0  0  0  0  0
   -6.3764   13.4972    0.2138 C   0  0  0  0  0  0  0  0  0  0  0  0
   -6.6785   14.8278    0.4978 C   0  0  0  0  0  0  0  0  0  0  0  0
  1  3  1  0  0  0  0
  1  5  1  0  0  0  0
  1  6  2  0  0  0  0
  2  5  2  0  0  0  0
  2 11  1  0  0  0  0
  2  4  1  0  0  0  0
  6 10  1  0  0  0  0
  7  8  2  0  0  0  0
  7 12  1  0  0  0  0
  8  9  1  0  0  0  0
  9 10  2  0  0  0  0
 10 11  1  0  0  0  0
 11 12  2  0  0  0  0
M  END
>  <CHROM.1>
-5.97233746,12.94041950,-0.02339055,-1.77018412,0.44457321,0.10114583

>  <Name>
ligand

>  <RI>
0

>  <Rbt.Current_Directory>
/home/itssahil/PROJECTS/Mol_Feturizer/Test_systems_manuscript/rnas/4lx5

>  <Rbt.Executable>
rbdock ($Id: //depot/dev/client3/rdock/2013.1/src/exe/rbdock.cxx#4 $)

>  <Rbt.Library>
libRbt.so (2013.1, Build901 2013/11/27)

>  <Rbt.Parameter_File>
/export/apps/rDock/src/rDock_2013.1_src/data/scripts/dock_solv.prm

>  <Rbt.Receptor>
prm/blind_docking_20.prm

>  <SCORE>
-7.3899

>  <SCORE.INTER>
-7.3899

>  <SCORE.INTER.CONST>
1

>  <SCORE.INTER.POLAR>
0

>  <SCORE.INTER.ROT>
0

>  <SCORE.INTER.SOLV>
10.5851

>  <SCORE.INTER.VDW>
-12.055

>  <SCORE.INTER.norm>
-0.615825

>  <SCORE.INTRA>
0

>  <SCORE.INTRA.DIHEDRAL>
0

>  <SCORE.INTRA.DIHEDRAL.0>
0

>  <SCORE.INTRA.POLAR>
0

>  <SCORE.INTRA.POLAR.0>
0

>  <SCORE.INTRA.REPUL>
0

>  <SCORE.INTRA.REPUL.0>
0

>  <SCORE.INTRA.SOLV>
0

>  <SCORE.INTRA.SOLV.lig_0>
-48.1583

>  <SCORE.INTRA.VDW>
0

>  <SCORE.INTRA.VDW.0>
0

>  <SCORE.INTRA.norm>
0

>  <SCORE.RESTR>
0

>  <SCORE.RESTR.CAVITY>
0

>  <SCORE.RESTR.norm>
0

>  <SCORE.SYSTEM>
0

>  <SCORE.SYSTEM.CONST>
0

>  <SCORE.SYSTEM.DIHEDRAL>
0

>  <SCORE.SYSTEM.SOLV>
0

>  <SCORE.SYSTEM.norm>
0

>  <SCORE.heavy>
12

>  <SCORE.norm>
-0.615825

>  <RMSD>
13.555

$$$$
ligand
 OpenBabel02271912143D
libRbt.so/2013.1/901 2013/11/27
 12 13  0  0  0  0  0  0  0  0999 V2000
   -5.8049   10.8694   -0.3059 C   0  0  0  0  0  0  0  0  0  0  0  0
   -7.2731   12.4690    0.5429 C   0  0  0  0  0  0  0  0  0  0  0  0
   -5.5412    9.5943   -0.5771 N   0  0  0  0  0  0  0  0  0  0  0  0
   -8.4154   12.8310    1.1371 N   0  0  0  0  0  0  0  0  0  0  0  0
   -6.9776   11.1882    0.2844 N   0  0  0  0  0  0  0  0  0  0  0  0
   -4.9121   11.8246   -0.6481 N   0  0  0  0  0  0  0  0  0  0  0  0
   -5.7230   15.8021    0.1496 N   0  0  0  0  0  0  0  0  0  0  0  0
   -4.5176   15.4335   -0.4675 C   0  0  0  0  0  0  0  0  0  0  0  0
   -4.2445   14.0703   -0.7278 N   0  0  0  0  0  0  0  0  0  0  0  0
   -5.1604   13.1343   -0.3975 C   0  0  0  0  0  0  0  0  0  0  0  0
   -6.3712   13.4863    0.2075 C   0  0  0  0  0  0  0  0  0  0  0  0
   -6.6715   14.8176    0.4902 C   0  0  0  0  0  0  0  0  0  0  0  0
  1  3  1  0  0  0  0
  1  5  1  0  0  0  0
  1  6  2  0  0  0  0
  2  5  2  0  0  0  0
  2 11  1  0  0  0  0
  2  4  1  0  0  0  0
  6 10  1  0  0  0  0
  7  8  2  0  0  0  0
  7 12  1  0  0  0  0
  8  9  1  0  0  0  0
  9 10  2  0  0  0  0
 10 11  1  0  0  0  0
 11 12  2  0  0  0  0
M  END
>  <CHROM.1>
-5.96781231,12.92873226,-0.02889298,-1.77173664,0.44364221,0.10096906

>  <Name>
ligand

>  <RI>
0

>  <Rbt.Current_Directory>
/home/itssahil/PROJECTS/Mol_Feturizer/Test_systems_manuscript/rnas/4lx5

>  <Rbt.Executable>
rbdock ($Id: //depot/dev/client3/rdock/2013.1/src/exe/rbdock.cxx#4 $)

>  <Rbt.Library>
libRbt.so (2013.1, Build901 2013/11/27)

>  <Rbt.Parameter_File>
/export/apps/rDock/src/rDock_2013.1_src/data/scripts/dock_solv.prm

>  <Rbt.Receptor>
prm/blind_docking_20.prm

>  <SCORE>
-7.379

>  <SCORE.INTER>
-7.379

>  <SCORE.INTER.CONST>
1

>  <SCORE.INTER.POLAR>
0

>  <SCORE.INTER.ROT>
0

>  <SCORE.INTER.SOLV>
10.616

>  <SCORE.INTER.VDW>
-12.058

>  <SCORE.INTER.norm>
-0.614917

>  <SCORE.INTRA>
0

>  <SCORE.INTRA.DIHEDRAL>
0

>  <SCORE.INTRA.DIHEDRAL.0>
0

>  <SCORE.INTRA.POLAR>
0

>  <SCORE.INTRA.POLAR.0>
0

>  <SCORE.INTRA.REPUL>
0

>  <SCORE.INTRA.REPUL.0>
0

>  <SCORE.INTRA.SOLV>
0

>  <SCORE.INTRA.SOLV.lig_0>
-48.1583

>  <SCORE.INTRA.VDW>
0

>  <SCORE.INTRA.VDW.0>
0

>  <SCORE.INTRA.norm>
0

>  <SCORE.RESTR>
0

>  <SCORE.RESTR.CAVITY>
0

>  <SCORE.RESTR.norm>
0

>  <SCORE.SYSTEM>
0

>  <SCORE.SYSTEM.CONST>
0

>  <SCORE.SYSTEM.DIHEDRAL>
0

>  <SCORE.SYSTEM.SOLV>
0

>  <SCORE.SYSTEM.norm>
0

>  <SCORE.heavy>
12

>  <SCORE.norm>
-0.614917

>  <RMSD>
13.557

$$$$
ligand
 OpenBabel02271912143D
libRbt.so/2013.1/901 2013/11/27
 12 13  0  0  0  0  0  0  0  0999 V2000
   -5.8149   10.8755   -0.3052 C   0  0  0  0  0  0  0  0  0  0  0  0
   -7.2813   12.4771    0.5430 C   0  0  0  0  0  0  0  0  0  0  0  0
   -5.5527    9.6001   -0.5762 N   0  0  0  0  0  0  0  0  0  0  0  0
   -8.4233   12.8407    1.1368 N   0  0  0  0  0  0  0  0  0  0  0  0
   -6.9873   11.1959    0.2847 N   0  0  0  0  0  0  0  0  0  0  0  0
   -4.9207   11.8295   -0.6472 N   0  0  0  0  0  0  0  0  0  0  0  0
   -5.7266   15.8082    0.1500 N   0  0  0  0  0  0  0  0  0  0  0  0
   -4.5215   15.4379   -0.4666 C   0  0  0  0  0  0  0  0  0  0  0  0
   -4.2502   14.0744   -0.7268 N   0  0  0  0  0  0  0  0  0  0  0  0
   -5.1673   13.1396   -0.3967 C   0  0  0  0  0  0  0  0  0  0  0  0
   -6.3779   13.4933    0.2078 C   0  0  0  0  0  0  0  0  0  0  0  0
   -6.6766   14.8249    0.4903 C   0  0  0  0  0  0  0  0  0  0  0  0
  1  3  1  0  0  0  0
  1  5  1  0  0  0  0
  1  6  2  0  0  0  0
  2  5  2  0  0  0  0
  2 11  1  0  0  0  0
  2  4  1  0  0  0  0
  6 10  1  0  0  0  0
  7  8  2  0  0  0  0
  7 12  1  0  0  0  0
  8  9  1  0  0  0  0
  9 10  2  0  0  0  0
 10 11  1  0  0  0  0
 11 12  2  0  0  0  0
M  END
>  <CHROM.1>
-5.97516840,12.93510244,-0.02840923,-1.77314856,0.44316409,0.10150873

>  <Name>
ligand

>  <RI>
0

>  <Rbt.Current_Directory>
/home/itssahil/PROJECTS/Mol_Feturizer/Test_systems_manuscript/rnas/4lx5

>  <Rbt.Executable>
rbdock ($Id: //depot/dev/client3/rdock/2013.1/src/exe/rbdock.cxx#4 $)

>  <Rbt.Library>
libRbt.so (2013.1, Build901 2013/11/27)

>  <Rbt.Parameter_File>
/export/apps/rDock/src/rDock_2013.1_src/data/scripts/dock_solv.prm

>  <Rbt.Receptor>
prm/blind_docking_20.prm

>  <SCORE>
-7.37765

>  <SCORE.INTER>
-7.37765

>  <SCORE.INTER.CONST>
1

>  <SCORE.INTER.POLAR>
0

>  <SCORE.INTER.ROT>
0

>  <SCORE.INTER.SOLV>
10.6358

>  <SCORE.INTER.VDW>
-12.0637

>  <SCORE.INTER.norm>
-0.614804

>  <SCORE.INTRA>
0

>  <SCORE.INTRA.DIHEDRAL>
0

>  <SCORE.INTRA.DIHEDRAL.0>
0

>  <SCORE.INTRA.POLAR>
0

>  <SCORE.INTRA.POLAR.0>
0

>  <SCORE.INTRA.REPUL>
0

>  <SCORE.INTRA.REPUL.0>
0

>  <SCORE.INTRA.SOLV>
0

>  <SCORE.INTRA.SOLV.lig_0>
-48.1583

>  <SCORE.INTRA.VDW>
0

>  <SCORE.INTRA.VDW.0>
0

>  <SCORE.INTRA.norm>
0

>  <SCORE.RESTR>
0

>  <SCORE.RESTR.CAVITY>
0

>  <SCORE.RESTR.norm>
0

>  <SCORE.SYSTEM>
0

>  <SCORE.SYSTEM.CONST>
0

>  <SCORE.SYSTEM.DIHEDRAL>
0

>  <SCORE.SYSTEM.SOLV>
0

>  <SCORE.SYSTEM.norm>
0

>  <SCORE.heavy>
12

>  <SCORE.norm>
-0.614804

>  <RMSD>
13.561

$$$$
ligand
 OpenBabel02271912143D
libRbt.so/2013.1/901 2013/11/27
 12 13  0  0  0  0  0  0  0  0999 V2000
   -5.8642   10.8873   -0.2543 C   0  0  0  0  0  0  0  0  0  0  0  0
   -7.3072   12.5057    0.6020 C   0  0  0  0  0  0  0  0  0  0  0  0
   -5.6152    9.6081   -0.5200 N   0  0  0  0  0  0  0  0  0  0  0  0
   -8.4386   12.8819    1.2081 N   0  0  0  0  0  0  0  0  0  0  0  0
   -7.0263   11.2206    0.3486 N   0  0  0  0  0  0  0  0  0  0  0  0
   -4.9674   11.8321   -0.6144 N   0  0  0  0  0  0  0  0  0  0  0  0
   -5.7327   15.8221    0.1660 N   0  0  0  0  0  0  0  0  0  0  0  0
   -4.5387   15.4385   -0.4637 C   0  0  0  0  0  0  0  0  0  0  0  0
   -4.2810   14.0712   -0.7181 N   0  0  0  0  0  0  0  0  0  0  0  0
   -5.2008   13.1457   -0.3697 C   0  0  0  0  0  0  0  0  0  0  0  0
   -6.4007   13.5127    0.2482 C   0  0  0  0  0  0  0  0  0  0  0  0
   -6.6856   14.8484    0.5254 C   0  0  0  0  0  0  0  0  0  0  0  0
  1  3  1  0  0  0  0
  1  5  1  0  0  0  0
  1  6  2  0  0  0  0
  2  5  2  0  0  0  0
  2 11  1  0  0  0  0
  2  4  1  0  0  0  0
  6 10  1  0  0  0  0
  7  8  2  0  0  0  0
  7 12  1  0  0  0  0
  8  9  1  0  0  0  0
  9 10  2  0  0  0  0
 10 11  1  0  0  0  0
 11 12  2  0  0  0  0
M  END
>  <CHROM.1>
-6.00527574,12.94986381,0.01049732,-1.78297338,0.45540232,0.09898689

>  <Name>
ligand

>  <RI>
0

>  <Rbt.Current_Directory>
/home/itssahil/PROJECTS/Mol_Feturizer/Test_systems_manuscript/rnas/4lx5

>  <Rbt.Executable>
rbdock ($Id: //depot/dev/client3/rdock/2013.1/src/exe/rbdock.cxx#4 $)

>  <Rbt.Library>
libRbt.so (2013.1, Build901 2013/11/27)

>  <Rbt.Parameter_File>
/export/apps/rDock/src/rDock_2013.1_src/data/scripts/dock_solv.prm

>  <Rbt.Receptor>
prm/blind_docking_20.prm

>  <SCORE>
-7.33754

>  <SCORE.INTER>
-7.33754

>  <SCORE.INTER.CONST>
1

>  <SCORE.INTER.POLAR>
0

>  <SCORE.INTER.ROT>
0

>  <SCORE.INTER.SOLV>
10.4335

>  <SCORE.INTER.VDW>
-11.9695

>  <SCORE.INTER.norm>
-0.611462

>  <SCORE.INTRA>
0

>  <SCORE.INTRA.DIHEDRAL>
0

>  <SCORE.INTRA.DIHEDRAL.0>
0

>  <SCORE.INTRA.POLAR>
0

>  <SCORE.INTRA.POLAR.0>
0

>  <SCORE.INTRA.REPUL>
0

>  <SCORE.INTRA.REPUL.0>
0

>  <SCORE.INTRA.SOLV>
0

>  <SCORE.INTRA.SOLV.lig_0>
-48.1583

>  <SCORE.INTRA.VDW>
0

>  <SCORE.INTRA.VDW.0>
0

>  <SCORE.INTRA.norm>
0

>  <SCORE.RESTR>
0

>  <SCORE.RESTR.CAVITY>
0

>  <SCORE.RESTR.norm>
0

>  <SCORE.SYSTEM>
0

>  <SCORE.SYSTEM.CONST>
0

>  <SCORE.SYSTEM.DIHEDRAL>
0

>  <SCORE.SYSTEM.SOLV>
0

>  <SCORE.SYSTEM.norm>
0

>  <SCORE.heavy>
12

>  <SCORE.norm>
-0.611462

>  <RMSD>
13.577

$$$$
ligand
 OpenBabel02271912143D
libRbt.so/2013.1/901 2013/11/27
 12 13  0  0  0  0  0  0  0  0999 V2000
   -5.8979   10.9096   -0.2617 C   0  0  0  0  0  0  0  0  0  0  0  0
   -7.3270   12.5385    0.5981 C   0  0  0  0  0  0  0  0  0  0  0  0
   -5.6597    9.6288   -0.5296 N   0  0  0  0  0  0  0  0  0  0  0  0
   -8.4549   12.9230    1.2056 N   0  0  0  0  0  0  0  0  0  0  0  0
   -7.0569   11.2515    0.3425 N   0  0  0  0  0  0  0  0  0  0  0  0
   -4.9936   11.8476   -0.6208 N   0  0  0  0  0  0  0  0  0  0  0  0
   -5.7255   15.8425    0.1666 N   0  0  0  0  0  0  0  0  0  0  0  0
   -4.5350   15.4500   -0.4645 C   0  0  0  0  0  0  0  0  0  0  0  0
   -4.2888   14.0811   -0.7212 N   0  0  0  0  0  0  0  0  0  0  0  0
   -5.2160   13.1626   -0.3738 C   0  0  0  0  0  0  0  0  0  0  0  0
   -6.4124   13.5385    0.2454 C   0  0  0  0  0  0  0  0  0  0  0  0
   -6.6861   14.8761    0.5250 C   0  0  0  0  0  0  0  0  0  0  0  0
  1  3  1  0  0  0  0
  1  5  1  0  0  0  0
  1  6  2  0  0  0  0
  2  5  2  0  0  0  0
  2 11  1  0  0  0  0
  2  4  1  0  0  0  0
  6 10  1  0  0  0  0
  7  8  2  0  0  0  0
  7 12  1  0  0  0  0
  8  9  1  0  0  0  0
  9 10  2  0  0  0  0
 10 11  1  0  0  0  0
 11 12  2  0  0  0  0
M  END
>  <CHROM.1>
-6.02182218,12.97281362,0.00656908,-1.79219685,0.45516066,0.10468204

>  <Name>
ligand

>  <RI>
0

>  <Rbt.Current_Directory>
/home/itssahil/PROJECTS/Mol_Feturizer/Test_systems_manuscript/rnas/4lx5

>  <Rbt.Executable>
rbdock ($Id: //depot/dev/client3/rdock/2013.1/src/exe/rbdock.cxx#4 $)

>  <Rbt.Library>
libRbt.so (2013.1, Build901 2013/11/27)

>  <Rbt.Parameter_File>
/export/apps/rDock/src/rDock_2013.1_src/data/scripts/dock_solv.prm

>  <Rbt.Receptor>
prm/blind_docking_20.prm

>  <SCORE>
-7.37257

>  <SCORE.INTER>
-7.37257

>  <SCORE.INTER.CONST>
1

>  <SCORE.INTER.POLAR>
0

>  <SCORE.INTER.ROT>
0

>  <SCORE.INTER.SOLV>
10.5531

>  <SCORE.INTER.VDW>
-12.0327

>  <SCORE.INTER.norm>
-0.614381

>  <SCORE.INTRA>
0

>  <SCORE.INTRA.DIHEDRAL>
0

>  <SCORE.INTRA.DIHEDRAL.0>
0

>  <SCORE.INTRA.POLAR>
0

>  <SCORE.INTRA.POLAR.0>
0

>  <SCORE.INTRA.REPUL>
0

>  <SCORE.INTRA.REPUL.0>
0

>  <SCORE.INTRA.SOLV>
0

>  <SCORE.INTRA.SOLV.lig_0>
-48.1583

>  <SCORE.INTRA.VDW>
0

>  <SCORE.INTRA.VDW.0>
0

>  <SCORE.INTRA.norm>
0

>  <SCORE.RESTR>
0

>  <SCORE.RESTR.CAVITY>
0

>  <SCORE.RESTR.norm>
0

>  <SCORE.SYSTEM>
0

>  <SCORE.SYSTEM.CONST>
0

>  <SCORE.SYSTEM.DIHEDRAL>
0

>  <SCORE.SYSTEM.SOLV>
0

>  <SCORE.SYSTEM.norm>
0

>  <SCORE.heavy>
12

>  <SCORE.norm>
-0.614381

>  <RMSD>
13.586

$$$$
ligand
 OpenBabel02271912143D
libRbt.so/2013.1/901 2013/11/27
 12 13  0  0  0  0  0  0  0  0999 V2000
   -1.9358   25.8217   -0.7644 C   0  0  0  0  0  0  0  0  0  0  0  0
   -4.1190   26.5050   -1.2133 C   0  0  0  0  0  0  0  0  0  0  0  0
   -0.6317   26.0817   -0.7917 N   0  0  0  0  0  0  0  0  0  0  0  0
   -5.0113   27.3756   -1.6981 N   0  0  0  0  0  0  0  0  0  0  0  0
   -2.8002   26.7368   -1.2547 N   0  0  0  0  0  0  0  0  0  0  0  0
   -2.3758   24.6635   -0.2242 N   0  0  0  0  0  0  0  0  0  0  0  0
   -6.4289   23.8452   -0.0921 N   0  0  0  0  0  0  0  0  0  0  0  0
   -5.5015   22.9208    0.4127 C   0  0  0  0  0  0  0  0  0  0  0  0
   -4.1170   23.2047    0.3547 N   0  0  0  0  0  0  0  0  0  0  0  0
   -3.7006   24.3777   -0.1692 C   0  0  0  0  0  0  0  0  0  0  0  0
   -4.6127   25.3144   -0.6659 C   0  0  0  0  0  0  0  0  0  0  0  0
   -5.9837   25.0660   -0.6367 C   0  0  0  0  0  0  0  0  0  0  0  0
  1  3  1  0  0  0  0
  1  5  1  0  0  0  0
  1  6  2  0  0  0  0
  2  5  2  0  0  0  0
  2 11  1  0  0  0  0
  2  4  1  0  0  0  0
  6 10  1  0  0  0  0
  7  8  2  0  0  0  0
  7 12  1  0  0  0  0
  8  9  1  0  0  0  0
  9 10  2  0  0  0  0
 10 11  1  0  0  0  0
 11 12  2  0  0  0  0
M  END
>  <CHROM.1>
-3.90615923,25.17157884,-0.56618398,-0.61385704,0.05614498,2.69469091

>  <Name>
ligand

>  <RI>
0

>  <Rbt.Current_Directory>
/home/itssahil/PROJECTS/Mol_Feturizer/Test_systems_manuscript/rnas/4lx5

>  <Rbt.Executable>
rbdock ($Id: //depot/dev/client3/rdock/2013.1/src/exe/rbdock.cxx#4 $)

>  <Rbt.Library>
libRbt.so (2013.1, Build901 2013/11/27)

>  <Rbt.Parameter_File>
/export/apps/rDock/src/rDock_2013.1_src/data/scripts/dock_solv.prm

>  <Rbt.Receptor>
prm/blind_docking_100.prm

>  <SCORE>
-7.76155

>  <SCORE.INTER>
-7.76155

>  <SCORE.INTER.CONST>
1

>  <SCORE.INTER.POLAR>
0

>  <SCORE.INTER.ROT>
0

>  <SCORE.INTER.SOLV>
5.65287

>  <SCORE.INTER.VDW>
-10.6587

>  <SCORE.INTER.norm>
-0.646796

>  <SCORE.INTRA>
0

>  <SCORE.INTRA.DIHEDRAL>
0

>  <SCORE.INTRA.DIHEDRAL.0>
0

>  <SCORE.INTRA.POLAR>
0

>  <SCORE.INTRA.POLAR.0>
0

>  <SCORE.INTRA.REPUL>
0

>  <SCORE.INTRA.REPUL.0>
0

>  <SCORE.INTRA.SOLV>
0

>  <SCORE.INTRA.SOLV.lig_0>
-48.1583

>  <SCORE.INTRA.VDW>
0

>  <SCORE.INTRA.VDW.0>
0

>  <SCORE.INTRA.norm>
0

>  <SCORE.RESTR>
0

>  <SCORE.RESTR.CAVITY>
0

>  <SCORE.RESTR.norm>
0

>  <SCORE.SYSTEM>
0

>  <SCORE.SYSTEM.CONST>
0

>  <SCORE.SYSTEM.DIHEDRAL>
0

>  <SCORE.SYSTEM.SOLV>
0

>  <SCORE.SYSTEM.norm>
0

>  <SCORE.heavy>
12

>  <SCORE.norm>
-0.646796

>  <RMSD>
13.612

$$$$
ligand
 OpenBabel02271912143D
libRbt.so/2013.1/901 2013/11/27
 12 13  0  0  0  0  0  0  0  0999 V2000
   -1.8989   25.8027   -0.8761 C   0  0  0  0  0  0  0  0  0  0  0  0
   -4.0773   26.5624   -1.2109 C   0  0  0  0  0  0  0  0  0  0  0  0
   -0.5898   26.0190   -0.9672 N   0  0  0  0  0  0  0  0  0  0  0  0
   -4.9627   27.4660   -1.6451 N   0  0  0  0  0  0  0  0  0  0  0  0
   -2.7552   26.7501   -1.3170 N   0  0  0  0  0  0  0  0  0  0  0  0
   -2.3504   24.6559   -0.3214 N   0  0  0  0  0  0  0  0  0  0  0  0
   -6.4173   23.9731    0.0089 N   0  0  0  0  0  0  0  0  0  0  0  0
   -5.4977   23.0143    0.4611 C   0  0  0  0  0  0  0  0  0  0  0  0
   -4.1090   23.2519    0.3355 N   0  0  0  0  0  0  0  0  0  0  0  0
   -3.6798   24.4143   -0.2017 C   0  0  0  0  0  0  0  0  0  0  0  0
   -4.5832   25.3849   -0.6465 C   0  0  0  0  0  0  0  0  0  0  0  0
   -5.9587   25.1824   -0.5500 C   0  0  0  0  0  0  0  0  0  0  0  0
  1  3  1  0  0  0  0
  1  5  1  0  0  0  0
  1  6  2  0  0  0  0
  2  5  2  0  0  0  0
  2 11  1  0  0  0  0
  2  4  1  0  0  0  0
  6 10  1  0  0  0  0
  7  8  2  0  0  0  0
  7 12  1  0  0  0  0
  8  9  1  0  0  0  0
  9 10  2  0  0  0  0
 10 11  1  0  0  0  0
 11 12  2  0  0  0  0
M  END
>  <CHROM.1>
-3.87780718,25.21763890,-0.58319665,-0.60485449,-0.00356277,2.70123693

>  <Name>
ligand

>  <RI>
0

>  <Rbt.Current_Directory>
/home/itssahil/PROJECTS/Mol_Feturizer/Test_systems_manuscript/rnas/4lx5

>  <Rbt.Executable>
rbdock ($Id: //depot/dev/client3/rdock/2013.1/src/exe/rbdock.cxx#4 $)

>  <Rbt.Library>
libRbt.so (2013.1, Build901 2013/11/27)

>  <Rbt.Parameter_File>
/export/apps/rDock/src/rDock_2013.1_src/data/scripts/dock_solv.prm

>  <Rbt.Receptor>
prm/blind_docking_80.prm

>  <SCORE>
-7.73932

>  <SCORE.INTER>
-7.73932

>  <SCORE.INTER.CONST>
1

>  <SCORE.INTER.POLAR>
0

>  <SCORE.INTER.ROT>
0

>  <SCORE.INTER.SOLV>
6.39334

>  <SCORE.INTER.VDW>
-10.8907

>  <SCORE.INTER.norm>
-0.644943

>  <SCORE.INTRA>
0

>  <SCORE.INTRA.DIHEDRAL>
0

>  <SCORE.INTRA.DIHEDRAL.0>
0

>  <SCORE.INTRA.POLAR>
0

>  <SCORE.INTRA.POLAR.0>
0

>  <SCORE.INTRA.REPUL>
0

>  <SCORE.INTRA.REPUL.0>
0

>  <SCORE.INTRA.SOLV>
0

>  <SCORE.INTRA.SOLV.lig_0>
-48.1583

>  <SCORE.INTRA.VDW>
0

>  <SCORE.INTRA.VDW.0>
0

>  <SCORE.INTRA.norm>
0

>  <SCORE.RESTR>
0

>  <SCORE.RESTR.CAVITY>
0

>  <SCORE.RESTR.norm>
0

>  <SCORE.SYSTEM>
0

>  <SCORE.SYSTEM.CONST>
0

>  <SCORE.SYSTEM.DIHEDRAL>
0

>  <SCORE.SYSTEM.SOLV>
0

>  <SCORE.SYSTEM.norm>
0

>  <SCORE.heavy>
12

>  <SCORE.norm>
-0.644943

>  <RMSD>
13.615

$$$$
ligand
 OpenBabel02271912143D
libRbt.so/2013.1/901 2013/11/27
 12 13  0  0  0  0  0  0  0  0999 V2000
   -1.9519   25.8212   -0.7679 C   0  0  0  0  0  0  0  0  0  0  0  0
   -4.1279   26.5012   -1.2551 C   0  0  0  0  0  0  0  0  0  0  0  0
   -0.6471   26.0785   -0.7828 N   0  0  0  0  0  0  0  0  0  0  0  0
   -5.0124   27.3655   -1.7648 N   0  0  0  0  0  0  0  0  0  0  0  0
   -2.8083   26.7301   -1.2835 N   0  0  0  0  0  0  0  0  0  0  0  0
   -2.4009   24.6725   -0.2151 N   0  0  0  0  0  0  0  0  0  0  0  0
   -6.4570   23.8635   -0.1213 N   0  0  0  0  0  0  0  0  0  0  0  0
   -5.5377   22.9455    0.4097 C   0  0  0  0  0  0  0  0  0  0  0  0
   -4.1521   23.2261    0.3648 N   0  0  0  0  0  0  0  0  0  0  0  0
   -3.7269   24.3900   -0.1723 C   0  0  0  0  0  0  0  0  0  0  0  0
   -4.6308   25.3203   -0.6952 C   0  0  0  0  0  0  0  0  0  0  0  0
   -6.0026   25.0748   -0.6794 C   0  0  0  0  0  0  0  0  0  0  0  0
  1  3  1  0  0  0  0
  1  5  1  0  0  0  0
  1  6  2  0  0  0  0
  2  5  2  0  0  0  0
  2 11  1  0  0  0  0
  2  4  1  0  0  0  0
  6 10  1  0  0  0  0
  7  8  2  0  0  0  0
  7 12  1  0  0  0  0
  8  9  1  0  0  0  0
  9 10  2  0  0  0  0
 10 11  1  0  0  0  0
 11 12  2  0  0  0  0
M  END
>  <CHROM.1>
-3.92586746,25.17779581,-0.58433810,-0.60664725,0.06666847,2.67844444

>  <Name>
ligand

>  <RI>
0

>  <Rbt.Current_Directory>
/home/itssahil/PROJECTS/Mol_Feturizer/Test_systems_manuscript/rnas/4lx5

>  <Rbt.Executable>
rbdock ($Id: //depot/dev/client3/rdock/2013.1/src/exe/rbdock.cxx#4 $)

>  <Rbt.Library>
libRbt.so (2013.1, Build901 2013/11/27)

>  <Rbt.Parameter_File>
/export/apps/rDock/src/rDock_2013.1_src/data/scripts/dock_solv.prm

>  <Rbt.Receptor>
prm/blind_docking_40.prm

>  <SCORE>
-7.77299

>  <SCORE.INTER>
-7.77299

>  <SCORE.INTER.CONST>
1

>  <SCORE.INTER.POLAR>
0

>  <SCORE.INTER.ROT>
0

>  <SCORE.INTER.SOLV>
5.51545

>  <SCORE.INTER.VDW>
-10.6205

>  <SCORE.INTER.norm>
-0.647749

>  <SCORE.INTRA>
0

>  <SCORE.INTRA.DIHEDRAL>
0

>  <SCORE.INTRA.DIHEDRAL.0>
0

>  <SCORE.INTRA.POLAR>
0

>  <SCORE.INTRA.POLAR.0>
0

>  <SCORE.INTRA.REPUL>
0

>  <SCORE.INTRA.REPUL.0>
0

>  <SCORE.INTRA.SOLV>
0

>  <SCORE.INTRA.SOLV.lig_0>
-48.1583

>  <SCORE.INTRA.VDW>
0

>  <SCORE.INTRA.VDW.0>
0

>  <SCORE.INTRA.norm>
0

>  <SCORE.RESTR>
0

>  <SCORE.RESTR.CAVITY>
0

>  <SCORE.RESTR.norm>
0

>  <SCORE.SYSTEM>
0

>  <SCORE.SYSTEM.CONST>
0

>  <SCORE.SYSTEM.DIHEDRAL>
0

>  <SCORE.SYSTEM.SOLV>
0

>  <SCORE.SYSTEM.norm>
0

>  <SCORE.heavy>
12

>  <SCORE.norm>
-0.647749

>  <RMSD>
13.635

$$$$
ligand
 OpenBabel02271912143D
libRbt.so/2013.1/901 2013/11/27
 12 13  0  0  0  0  0  0  0  0999 V2000
   -7.0506   14.6093   -0.2965 C   0  0  0  0  0  0  0  0  0  0  0  0
   -7.4464   12.4844    0.5768 C   0  0  0  0  0  0  0  0  0  0  0  0
   -7.4696   15.8557   -0.4963 N   0  0  0  0  0  0  0  0  0  0  0  0
   -8.2174   11.5829    1.1948 N   0  0  0  0  0  0  0  0  0  0  0  0
   -7.8599   13.7371    0.3433 N   0  0  0  0  0  0  0  0  0  0  0  0
   -5.8169   14.2440   -0.7102 N   0  0  0  0  0  0  0  0  0  0  0  0
   -4.4732   10.3842   -0.0686 N   0  0  0  0  0  0  0  0  0  0  0  0
   -3.6582   11.3195   -0.7249 C   0  0  0  0  0  0  0  0  0  0  0  0
   -4.1295   12.6342   -0.9485 N   0  0  0  0  0  0  0  0  0  0  0  0
   -5.3569   12.9842   -0.5071 C   0  0  0  0  0  0  0  0  0  0  0  0
   -6.1767   12.0673    0.1588 C   0  0  0  0  0  0  0  0  0  0  0  0
   -5.7522   10.7598    0.3878 C   0  0  0  0  0  0  0  0  0  0  0  0
  1  3  1  0  0  0  0
  1  5  1  0  0  0  0
  1  6  2  0  0  0  0
  2  5  2  0  0  0  0
  2 11  1  0  0  0  0
  2  4  1  0  0  0  0
  6 10  1  0  0  0  0
  7  8  2  0  0  0  0
  7 12  1  0  0  0  0
  8  9  1  0  0  0  0
  9 10  2  0  0  0  0
 10 11  1  0  0  0  0
 11 12  2  0  0  0  0
M  END
>  <CHROM.1>
-6.13343204,12.74880330,-0.09266821,-2.35199162,-0.39752851,2.83028479

>  <Name>
ligand

>  <RI>
0

>  <Rbt.Current_Directory>
/home/itssahil/PROJECTS/Mol_Feturizer/Test_systems_manuscript/rnas/4lx5

>  <Rbt.Executable>
rbdock ($Id: //depot/dev/client3/rdock/2013.1/src/exe/rbdock.cxx#4 $)

>  <Rbt.Library>
libRbt.so (2013.1, Build901 2013/11/27)

>  <Rbt.Parameter_File>
/export/apps/rDock/src/rDock_2013.1_src/data/scripts/dock_solv.prm

>  <Rbt.Receptor>
prm/blind_docking_20.prm

>  <SCORE>
-5.92988

>  <SCORE.INTER>
-5.92988

>  <SCORE.INTER.CONST>
1

>  <SCORE.INTER.POLAR>
0

>  <SCORE.INTER.ROT>
0

>  <SCORE.INTER.SOLV>
7.3537

>  <SCORE.INTER.VDW>
-10.0045

>  <SCORE.INTER.norm>
-0.494157

>  <SCORE.INTRA>
0

>  <SCORE.INTRA.DIHEDRAL>
0

>  <SCORE.INTRA.DIHEDRAL.0>
0

>  <SCORE.INTRA.POLAR>
0

>  <SCORE.INTRA.POLAR.0>
0

>  <SCORE.INTRA.REPUL>
0

>  <SCORE.INTRA.REPUL.0>
0

>  <SCORE.INTRA.SOLV>
0

>  <SCORE.INTRA.SOLV.lig_0>
-48.1583

>  <SCORE.INTRA.VDW>
0

>  <SCORE.INTRA.VDW.0>
0

>  <SCORE.INTRA.norm>
0

>  <SCORE.RESTR>
0

>  <SCORE.RESTR.CAVITY>
0

>  <SCORE.RESTR.norm>
0

>  <SCORE.SYSTEM>
0

>  <SCORE.SYSTEM.CONST>
0

>  <SCORE.SYSTEM.DIHEDRAL>
0

>  <SCORE.SYSTEM.SOLV>
0

>  <SCORE.SYSTEM.norm>
0

>  <SCORE.heavy>
12

>  <SCORE.norm>
-0.494157

>  <RMSD>
13.843

$$$$
ligand
 OpenBabel02271912143D
libRbt.so/2013.1/901 2013/11/27
 12 13  0  0  0  0  0  0  0  0999 V2000
   -8.1149   15.3204    3.0698 C   0  0  0  0  0  0  0  0  0  0  0  0
   -7.8897   13.4003    1.7669 C   0  0  0  0  0  0  0  0  0  0  0  0
   -8.7050   15.9470    4.0837 N   0  0  0  0  0  0  0  0  0  0  0  0
   -8.2356   12.1546    1.4240 N   0  0  0  0  0  0  0  0  0  0  0  0
   -8.4894   14.0578    2.7682 N   0  0  0  0  0  0  0  0  0  0  0  0
   -7.1355   15.9433    2.3774 N   0  0  0  0  0  0  0  0  0  0  0  0
   -5.2570   14.0044   -0.7574 N   0  0  0  0  0  0  0  0  0  0  0  0
   -4.8908   15.3144   -0.4116 C   0  0  0  0  0  0  0  0  0  0  0  0
   -5.5450   15.9731    0.6556 N   0  0  0  0  0  0  0  0  0  0  0  0
   -6.5057   15.3239    1.3481 C   0  0  0  0  0  0  0  0  0  0  0  0
   -6.8742   14.0143    1.0234 C   0  0  0  0  0  0  0  0  0  0  0  0
   -6.2606   13.3363   -0.0283 C   0  0  0  0  0  0  0  0  0  0  0  0
  1  3  1  0  0  0  0
  1  5  1  0  0  0  0
  1  6  2  0  0  0  0
  2  5  2  0  0  0  0
  2 11  1  0  0  0  0
  2  4  1  0  0  0  0
  6 10  1  0  0  0  0
  7  8  2  0  0  0  0
  7 12  1  0  0  0  0
  8  9  1  0  0  0  0
  9 10  2  0  0  0  0
 10 11  1  0  0  0  0
 11 12  2  0  0  0  0
M  END
>  <CHROM.1>
-7.01005637,14.57458699,1.46749842,-2.66754860,-0.75646538,-2.62934004

>  <Name>
ligand

>  <RI>
0

>  <Rbt.Current_Directory>
/home/itssahil/PROJECTS/Mol_Feturizer/Test_systems_manuscript/rnas/4lx5

>  <Rbt.Executable>
rbdock ($Id: //depot/dev/client3/rdock/2013.1/src/exe/rbdock.cxx#4 $)

>  <Rbt.Library>
libRbt.so (2013.1, Build901 2013/11/27)

>  <Rbt.Parameter_File>
/export/apps/rDock/src/rDock_2013.1_src/data/scripts/dock_solv.prm

>  <Rbt.Receptor>
prm/blind_docking_20.prm

>  <SCORE>
-7.07794

>  <SCORE.INTER>
-7.07794

>  <SCORE.INTER.CONST>
1

>  <SCORE.INTER.POLAR>
0

>  <SCORE.INTER.ROT>
0

>  <SCORE.INTER.SOLV>
5.17333

>  <SCORE.INTER.VDW>
-10.0431

>  <SCORE.INTER.norm>
-0.589828

>  <SCORE.INTRA>
0

>  <SCORE.INTRA.DIHEDRAL>
0

>  <SCORE.INTRA.DIHEDRAL.0>
0

>  <SCORE.INTRA.POLAR>
0

>  <SCORE.INTRA.POLAR.0>
0

>  <SCORE.INTRA.REPUL>
0

>  <SCORE.INTRA.REPUL.0>
0

>  <SCORE.INTRA.SOLV>
0

>  <SCORE.INTRA.SOLV.lig_0>
-48.1583

>  <SCORE.INTRA.VDW>
0

>  <SCORE.INTRA.VDW.0>
0

>  <SCORE.INTRA.norm>
0

>  <SCORE.RESTR>
0

>  <SCORE.RESTR.CAVITY>
0

>  <SCORE.RESTR.norm>
0

>  <SCORE.SYSTEM>
0

>  <SCORE.SYSTEM.CONST>
0

>  <SCORE.SYSTEM.DIHEDRAL>
0

>  <SCORE.SYSTEM.SOLV>
0

>  <SCORE.SYSTEM.norm>
0

>  <SCORE.heavy>
12

>  <SCORE.norm>
-0.589828

>  <RMSD>
13.975

$$$$
ligand
 OpenBabel02271912143D
libRbt.so/2013.1/901 2013/11/27
 12 13  0  0  0  0  0  0  0  0999 V2000
   -8.1360   15.3356    3.0641 C   0  0  0  0  0  0  0  0  0  0  0  0
   -7.8951   13.4184    1.7598 C   0  0  0  0  0  0  0  0  0  0  0  0
   -8.7342   15.9581    4.0758 N   0  0  0  0  0  0  0  0  0  0  0  0
   -8.2337   12.1717    1.4134 N   0  0  0  0  0  0  0  0  0  0  0  0
   -8.5031   14.0718    2.7588 N   0  0  0  0  0  0  0  0  0  0  0  0
   -7.1557   15.9639    2.3778 N   0  0  0  0  0  0  0  0  0  0  0  0
   -5.2518   14.0378   -0.7495 N   0  0  0  0  0  0  0  0  0  0  0  0
   -4.8934   15.3489   -0.4000 C   0  0  0  0  0  0  0  0  0  0  0  0
   -5.5562   16.0032    0.6645 N   0  0  0  0  0  0  0  0  0  0  0  0
   -6.5176   15.3487    1.3510 C   0  0  0  0  0  0  0  0  0  0  0  0
   -6.8785   14.0380    1.0226 C   0  0  0  0  0  0  0  0  0  0  0  0
   -6.2563   13.3642   -0.0267 C   0  0  0  0  0  0  0  0  0  0  0  0
  1  3  1  0  0  0  0
  1  5  1  0  0  0  0
  1  6  2  0  0  0  0
  2  5  2  0  0  0  0
  2 11  1  0  0  0  0
  2  4  1  0  0  0  0
  6 10  1  0  0  0  0
  7  8  2  0  0  0  0
  7 12  1  0  0  0  0
  8  9  1  0  0  0  0
  9 10  2  0  0  0  0
 10 11  1  0  0  0  0
 11 12  2  0  0  0  0
M  END
>  <CHROM.1>
-7.01923068,14.59702144,1.46674131,-2.67649279,-0.75400345,-2.63408861

>  <Name>
ligand

>  <RI>
0

>  <Rbt.Current_Directory>
/home/itssahil/PROJECTS/Mol_Feturizer/Test_systems_manuscript/rnas/4lx5

>  <Rbt.Executable>
rbdock ($Id: //depot/dev/client3/rdock/2013.1/src/exe/rbdock.cxx#4 $)

>  <Rbt.Library>
libRbt.so (2013.1, Build901 2013/11/27)

>  <Rbt.Parameter_File>
/export/apps/rDock/src/rDock_2013.1_src/data/scripts/dock_solv.prm

>  <Rbt.Receptor>
prm/blind_docking_20.prm

>  <SCORE>
-7.06757

>  <SCORE.INTER>
-7.06757

>  <SCORE.INTER.CONST>
1

>  <SCORE.INTER.POLAR>
0

>  <SCORE.INTER.ROT>
0

>  <SCORE.INTER.SOLV>
5.14089

>  <SCORE.INTER.VDW>
-10.0253

>  <SCORE.INTER.norm>
-0.588964

>  <SCORE.INTRA>
0

>  <SCORE.INTRA.DIHEDRAL>
0

>  <SCORE.INTRA.DIHEDRAL.0>
0

>  <SCORE.INTRA.POLAR>
0

>  <SCORE.INTRA.POLAR.0>
0

>  <SCORE.INTRA.REPUL>
0

>  <SCORE.INTRA.REPUL.0>
0

>  <SCORE.INTRA.SOLV>
0

>  <SCORE.INTRA.SOLV.lig_0>
-48.1583

>  <SCORE.INTRA.VDW>
0

>  <SCORE.INTRA.VDW.0>
0

>  <SCORE.INTRA.norm>
0

>  <SCORE.RESTR>
0

>  <SCORE.RESTR.CAVITY>
0

>  <SCORE.RESTR.norm>
0

>  <SCORE.SYSTEM>
0

>  <SCORE.SYSTEM.CONST>
0

>  <SCORE.SYSTEM.DIHEDRAL>
0

>  <SCORE.SYSTEM.SOLV>
0

>  <SCORE.SYSTEM.norm>
0

>  <SCORE.heavy>
12

>  <SCORE.norm>
-0.588964

>  <RMSD>
13.978

$$$$
ligand
 OpenBabel02271912143D
libRbt.so/2013.1/901 2013/11/27
 12 13  0  0  0  0  0  0  0  0999 V2000
   -8.1457   15.3480    3.0550 C   0  0  0  0  0  0  0  0  0  0  0  0
   -7.8954   13.4173    1.7725 C   0  0  0  0  0  0  0  0  0  0  0  0
   -8.7486   15.9796    4.0582 N   0  0  0  0  0  0  0  0  0  0  0  0
   -8.2291   12.1657    1.4390 N   0  0  0  0  0  0  0  0  0  0  0  0
   -8.5081   14.0797    2.7628 N   0  0  0  0  0  0  0  0  0  0  0  0
   -7.1656   15.9718    2.3644 N   0  0  0  0  0  0  0  0  0  0  0  0
   -5.2475   14.0174   -0.7366 N   0  0  0  0  0  0  0  0  0  0  0  0
   -4.8941   15.3334   -0.4006 C   0  0  0  0  0  0  0  0  0  0  0  0
   -5.5618   15.9973    0.6549 N   0  0  0  0  0  0  0  0  0  0  0  0
   -6.5229   15.3473    1.3461 C   0  0  0  0  0  0  0  0  0  0  0  0
   -6.8788   14.0319    1.0312 C   0  0  0  0  0  0  0  0  0  0  0  0
   -6.2517   13.3486   -0.0091 C   0  0  0  0  0  0  0  0  0  0  0  0
  1  3  1  0  0  0  0
  1  5  1  0  0  0  0
  1  6  2  0  0  0  0
  2  5  2  0  0  0  0
  2 11  1  0  0  0  0
  2  4  1  0  0  0  0
  6 10  1  0  0  0  0
  7  8  2  0  0  0  0
  7 12  1  0  0  0  0
  8  9  1  0  0  0  0
  9 10  2  0  0  0  0
 10 11  1  0  0  0  0
 11 12  2  0  0  0  0
M  END
>  <CHROM.1>
-7.02246348,14.59536262,1.46877427,-2.68200885,-0.75324246,-2.64887255

>  <Name>
ligand

>  <RI>
0

>  <Rbt.Current_Directory>
/home/itssahil/PROJECTS/Mol_Feturizer/Test_systems_manuscript/rnas/4lx5

>  <Rbt.Executable>
rbdock ($Id: //depot/dev/client3/rdock/2013.1/src/exe/rbdock.cxx#4 $)

>  <Rbt.Library>
libRbt.so (2013.1, Build901 2013/11/27)

>  <Rbt.Parameter_File>
/export/apps/rDock/src/rDock_2013.1_src/data/scripts/dock_solv.prm

>  <Rbt.Receptor>
prm/blind_docking_20.prm

>  <SCORE>
-7.08582

>  <SCORE.INTER>
-7.08582

>  <SCORE.INTER.CONST>
1

>  <SCORE.INTER.POLAR>
0

>  <SCORE.INTER.ROT>
0

>  <SCORE.INTER.SOLV>
5.09444

>  <SCORE.INTER.VDW>
-10.022

>  <SCORE.INTER.norm>
-0.590485

>  <SCORE.INTRA>
0

>  <SCORE.INTRA.DIHEDRAL>
0

>  <SCORE.INTRA.DIHEDRAL.0>
0

>  <SCORE.INTRA.POLAR>
0

>  <SCORE.INTRA.POLAR.0>
0

>  <SCORE.INTRA.REPUL>
0

>  <SCORE.INTRA.REPUL.0>
0

>  <SCORE.INTRA.SOLV>
0

>  <SCORE.INTRA.SOLV.lig_0>
-48.1583

>  <SCORE.INTRA.VDW>
0

>  <SCORE.INTRA.VDW.0>
0

>  <SCORE.INTRA.norm>
0

>  <SCORE.RESTR>
0

>  <SCORE.RESTR.CAVITY>
0

>  <SCORE.RESTR.norm>
0

>  <SCORE.SYSTEM>
0

>  <SCORE.SYSTEM.CONST>
0

>  <SCORE.SYSTEM.DIHEDRAL>
0

>  <SCORE.SYSTEM.SOLV>
0

>  <SCORE.SYSTEM.norm>
0

>  <SCORE.heavy>
12

>  <SCORE.norm>
-0.590485

>  <RMSD>
13.981

$$$$
ligand
 OpenBabel02271912143D
libRbt.so/2013.1/901 2013/11/27
 12 13  0  0  0  0  0  0  0  0999 V2000
   -8.1394   15.2964    3.0237 C   0  0  0  0  0  0  0  0  0  0  0  0
   -7.8815   13.3684    1.7387 C   0  0  0  0  0  0  0  0  0  0  0  0
   -8.7460   15.9249    4.0266 N   0  0  0  0  0  0  0  0  0  0  0  0
   -8.2113   12.1165    1.4025 N   0  0  0  0  0  0  0  0  0  0  0  0
   -8.4979   14.0277    2.7287 N   0  0  0  0  0  0  0  0  0  0  0  0
   -7.1594   15.9237    2.3362 N   0  0  0  0  0  0  0  0  0  0  0  0
   -5.2297   13.9792   -0.7638 N   0  0  0  0  0  0  0  0  0  0  0  0
   -4.8804   15.2955   -0.4250 C   0  0  0  0  0  0  0  0  0  0  0  0
   -5.5520   15.9560    0.6302 N   0  0  0  0  0  0  0  0  0  0  0  0
   -6.5129   15.3025    1.3183 C   0  0  0  0  0  0  0  0  0  0  0  0
   -6.8648   13.9867    1.0006 C   0  0  0  0  0  0  0  0  0  0  0  0
   -6.2338   13.3067   -0.0395 C   0  0  0  0  0  0  0  0  0  0  0  0
  1  3  1  0  0  0  0
  1  5  1  0  0  0  0
  1  6  2  0  0  0  0
  2  5  2  0  0  0  0
  2 11  1  0  0  0  0
  2  4  1  0  0  0  0
  6 10  1  0  0  0  0
  7  8  2  0  0  0  0
  7 12  1  0  0  0  0
  8  9  1  0  0  0  0
  9 10  2  0  0  0  0
 10 11  1  0  0  0  0
 11 12  2  0  0  0  0
M  END
>  <CHROM.1>
-7.01085458,14.54910600,1.43870821,-2.68643729,-0.75253710,-2.65031190

>  <Name>
ligand

>  <RI>
0

>  <Rbt.Current_Directory>
/home/itssahil/PROJECTS/Mol_Feturizer/Test_systems_manuscript/rnas/4lx5

>  <Rbt.Executable>
rbdock ($Id: //depot/dev/client3/rdock/2013.1/src/exe/rbdock.cxx#4 $)

>  <Rbt.Library>
libRbt.so (2013.1, Build901 2013/11/27)

>  <Rbt.Parameter_File>
/export/apps/rDock/src/rDock_2013.1_src/data/scripts/dock_solv.prm

>  <Rbt.Receptor>
prm/blind_docking_20.prm

>  <SCORE>
-7.07305

>  <SCORE.INTER>
-7.07305

>  <SCORE.INTER.CONST>
1

>  <SCORE.INTER.POLAR>
0

>  <SCORE.INTER.ROT>
0

>  <SCORE.INTER.SOLV>
5.10131

>  <SCORE.INTER.VDW>
-10.0158

>  <SCORE.INTER.norm>
-0.589421

>  <SCORE.INTRA>
0

>  <SCORE.INTRA.DIHEDRAL>
0

>  <SCORE.INTRA.DIHEDRAL.0>
0

>  <SCORE.INTRA.POLAR>
0

>  <SCORE.INTRA.POLAR.0>
0

>  <SCORE.INTRA.REPUL>
0

>  <SCORE.INTRA.REPUL.0>
0

>  <SCORE.INTRA.SOLV>
0

>  <SCORE.INTRA.SOLV.lig_0>
-48.1583

>  <SCORE.INTRA.VDW>
0

>  <SCORE.INTRA.VDW.0>
0

>  <SCORE.INTRA.norm>
0

>  <SCORE.RESTR>
0

>  <SCORE.RESTR.CAVITY>
0

>  <SCORE.RESTR.norm>
0

>  <SCORE.SYSTEM>
0

>  <SCORE.SYSTEM.CONST>
0

>  <SCORE.SYSTEM.DIHEDRAL>
0

>  <SCORE.SYSTEM.SOLV>
0

>  <SCORE.SYSTEM.norm>
0

>  <SCORE.heavy>
12

>  <SCORE.norm>
-0.589421

>  <RMSD>
13.983

$$$$
ligand
 OpenBabel02271912143D
libRbt.so/2013.1/901 2013/11/27
 12 13  0  0  0  0  0  0  0  0999 V2000
   -8.1468   15.3534    3.0470 C   0  0  0  0  0  0  0  0  0  0  0  0
   -7.8985   13.4213    1.7662 C   0  0  0  0  0  0  0  0  0  0  0  0
   -8.7488   15.9865    4.0497 N   0  0  0  0  0  0  0  0  0  0  0  0
   -8.2333   12.1697    1.4340 N   0  0  0  0  0  0  0  0  0  0  0  0
   -8.5103   14.0851    2.7560 N   0  0  0  0  0  0  0  0  0  0  0  0
   -7.1665   15.9757    2.3554 N   0  0  0  0  0  0  0  0  0  0  0  0
   -5.2511   14.0169   -0.7445 N   0  0  0  0  0  0  0  0  0  0  0  0
   -4.8965   15.3329   -0.4099 C   0  0  0  0  0  0  0  0  0  0  0  0
   -5.5633   15.9984    0.6453 N   0  0  0  0  0  0  0  0  0  0  0  0
   -6.5247   15.3498    1.3374 C   0  0  0  0  0  0  0  0  0  0  0  0
   -6.8817   14.0344    1.0239 C   0  0  0  0  0  0  0  0  0  0  0  0
   -6.2556   13.3496   -0.0159 C   0  0  0  0  0  0  0  0  0  0  0  0
  1  3  1  0  0  0  0
  1  5  1  0  0  0  0
  1  6  2  0  0  0  0
  2  5  2  0  0  0  0
  2 11  1  0  0  0  0
  2  4  1  0  0  0  0
  6 10  1  0  0  0  0
  7  8  2  0  0  0  0
  7 12  1  0  0  0  0
  8  9  1  0  0  0  0
  9 10  2  0  0  0  0
 10 11  1  0  0  0  0
 11 12  2  0  0  0  0
M  END
>  <CHROM.1>
-7.02477694,14.59837608,1.46101570,-2.68081847,-0.75319016,-2.64902256

>  <Name>
ligand

>  <RI>
0

>  <Rbt.Current_Directory>
/home/itssahil/PROJECTS/Mol_Feturizer/Test_systems_manuscript/rnas/4lx5

>  <Rbt.Executable>
rbdock ($Id: //depot/dev/client3/rdock/2013.1/src/exe/rbdock.cxx#4 $)

>  <Rbt.Library>
libRbt.so (2013.1, Build901 2013/11/27)

>  <Rbt.Parameter_File>
/export/apps/rDock/src/rDock_2013.1_src/data/scripts/dock_solv.prm

>  <Rbt.Receptor>
prm/blind_docking_20.prm

>  <SCORE>
-7.08205

>  <SCORE.INTER>
-7.08205

>  <SCORE.INTER.CONST>
1

>  <SCORE.INTER.POLAR>
0

>  <SCORE.INTER.ROT>
0

>  <SCORE.INTER.SOLV>
5.09809

>  <SCORE.INTER.VDW>
-10.0207

>  <SCORE.INTER.norm>
-0.590171

>  <SCORE.INTRA>
0

>  <SCORE.INTRA.DIHEDRAL>
0

>  <SCORE.INTRA.DIHEDRAL.0>
0

>  <SCORE.INTRA.POLAR>
0

>  <SCORE.INTRA.POLAR.0>
0

>  <SCORE.INTRA.REPUL>
0

>  <SCORE.INTRA.REPUL.0>
0

>  <SCORE.INTRA.SOLV>
0

>  <SCORE.INTRA.SOLV.lig_0>
-48.1583

>  <SCORE.INTRA.VDW>
0

>  <SCORE.INTRA.VDW.0>
0

>  <SCORE.INTRA.norm>
0

>  <SCORE.RESTR>
0

>  <SCORE.RESTR.CAVITY>
0

>  <SCORE.RESTR.norm>
0

>  <SCORE.SYSTEM>
0

>  <SCORE.SYSTEM.CONST>
0

>  <SCORE.SYSTEM.DIHEDRAL>
0

>  <SCORE.SYSTEM.SOLV>
0

>  <SCORE.SYSTEM.norm>
0

>  <SCORE.heavy>
12

>  <SCORE.norm>
-0.590171

>  <RMSD>
13.984

$$$$
ligand
 OpenBabel02271912143D
libRbt.so/2013.1/901 2013/11/27
 12 13  0  0  0  0  0  0  0  0999 V2000
   -8.1444   15.3040    3.0144 C   0  0  0  0  0  0  0  0  0  0  0  0
   -7.8798   13.3693    1.7409 C   0  0  0  0  0  0  0  0  0  0  0  0
   -8.7529   15.9363    4.0138 N   0  0  0  0  0  0  0  0  0  0  0  0
   -8.2050   12.1142    1.4124 N   0  0  0  0  0  0  0  0  0  0  0  0
   -8.4982   14.0322    2.7271 N   0  0  0  0  0  0  0  0  0  0  0  0
   -7.1672   15.9309    2.3225 N   0  0  0  0  0  0  0  0  0  0  0  0
   -5.2317   13.9751   -0.7667 N   0  0  0  0  0  0  0  0  0  0  0  0
   -4.8872   15.2948   -0.4360 C   0  0  0  0  0  0  0  0  0  0  0  0
   -5.5608   15.9591    0.6155 N   0  0  0  0  0  0  0  0  0  0  0  0
   -6.5189   15.3061    1.3080 C   0  0  0  0  0  0  0  0  0  0  0  0
   -6.8659   13.9871    0.9984 C   0  0  0  0  0  0  0  0  0  0  0  0
   -6.2328   13.3032   -0.0378 C   0  0  0  0  0  0  0  0  0  0  0  0
  1  3  1  0  0  0  0
  1  5  1  0  0  0  0
  1  6  2  0  0  0  0
  2  5  2  0  0  0  0
  2 11  1  0  0  0  0
  2  4  1  0  0  0  0
  6 10  1  0  0  0  0
  7  8  2  0  0  0  0
  7 12  1  0  0  0  0
  8  9  1  0  0  0  0
  9 10  2  0  0  0  0
 10 11  1  0  0  0  0
 11 12  2  0  0  0  0
M  END
>  <CHROM.1>
-7.01384539,14.55152725,1.43326025,-2.69073772,-0.75479797,-2.65927908

>  <Name>
ligand

>  <RI>
0

>  <Rbt.Current_Directory>
/home/itssahil/PROJECTS/Mol_Feturizer/Test_systems_manuscript/rnas/4lx5

>  <Rbt.Executable>
rbdock ($Id: //depot/dev/client3/rdock/2013.1/src/exe/rbdock.cxx#4 $)

>  <Rbt.Library>
libRbt.so (2013.1, Build901 2013/11/27)

>  <Rbt.Parameter_File>
/export/apps/rDock/src/rDock_2013.1_src/data/scripts/dock_solv.prm

>  <Rbt.Receptor>
prm/blind_docking_20.prm

>  <SCORE>
-7.07768

>  <SCORE.INTER>
-7.07768

>  <SCORE.INTER.CONST>
1

>  <SCORE.INTER.POLAR>
0

>  <SCORE.INTER.ROT>
0

>  <SCORE.INTER.SOLV>
5.06104

>  <SCORE.INTER.VDW>
-10.0055

>  <SCORE.INTER.norm>
-0.589806

>  <SCORE.INTRA>
0

>  <SCORE.INTRA.DIHEDRAL>
0

>  <SCORE.INTRA.DIHEDRAL.0>
0

>  <SCORE.INTRA.POLAR>
0

>  <SCORE.INTRA.POLAR.0>
0

>  <SCORE.INTRA.REPUL>
0

>  <SCORE.INTRA.REPUL.0>
0

>  <SCORE.INTRA.SOLV>
0

>  <SCORE.INTRA.SOLV.lig_0>
-48.1583

>  <SCORE.INTRA.VDW>
0

>  <SCORE.INTRA.VDW.0>
0

>  <SCORE.INTRA.norm>
0

>  <SCORE.RESTR>
0

>  <SCORE.RESTR.CAVITY>
0

>  <SCORE.RESTR.norm>
0

>  <SCORE.SYSTEM>
0

>  <SCORE.SYSTEM.CONST>
0

>  <SCORE.SYSTEM.DIHEDRAL>
0

>  <SCORE.SYSTEM.SOLV>
0

>  <SCORE.SYSTEM.norm>
0

>  <SCORE.heavy>
12

>  <SCORE.norm>
-0.589806

>  <RMSD>
13.986

$$$$
ligand
 OpenBabel02271912143D
libRbt.so/2013.1/901 2013/11/27
 12 13  0  0  0  0  0  0  0  0999 V2000
   -8.1443   15.3402    3.0417 C   0  0  0  0  0  0  0  0  0  0  0  0
   -7.9008   13.4129    1.7528 C   0  0  0  0  0  0  0  0  0  0  0  0
   -8.7433   15.9699    4.0484 N   0  0  0  0  0  0  0  0  0  0  0  0
   -8.2376   12.1629    1.4165 N   0  0  0  0  0  0  0  0  0  0  0  0
   -8.5096   14.0734    2.7466 N   0  0  0  0  0  0  0  0  0  0  0  0
   -7.1650   15.9643    2.3502 N   0  0  0  0  0  0  0  0  0  0  0  0
   -5.2587   14.0159   -0.7618 N   0  0  0  0  0  0  0  0  0  0  0  0
   -4.9022   15.3303   -0.4229 C   0  0  0  0  0  0  0  0  0  0  0  0
   -5.5658   15.9922    0.6364 N   0  0  0  0  0  0  0  0  0  0  0  0
   -6.5262   15.3418    1.3283 C   0  0  0  0  0  0  0  0  0  0  0  0
   -6.8852   14.0280    1.0105 C   0  0  0  0  0  0  0  0  0  0  0  0
   -6.2621   13.3467   -0.0335 C   0  0  0  0  0  0  0  0  0  0  0  0
  1  3  1  0  0  0  0
  1  5  1  0  0  0  0
  1  6  2  0  0  0  0
  2  5  2  0  0  0  0
  2 11  1  0  0  0  0
  2  4  1  0  0  0  0
  6 10  1  0  0  0  0
  7  8  2  0  0  0  0
  7 12  1  0  0  0  0
  8  9  1  0  0  0  0
  9 10  2  0  0  0  0
 10 11  1  0  0  0  0
 11 12  2  0  0  0  0
M  END
>  <CHROM.1>
-7.02668669,14.59035822,1.45012796,-2.67814789,-0.75482507,-2.64326921

>  <Name>
ligand

>  <RI>
0

>  <Rbt.Current_Directory>
/home/itssahil/PROJECTS/Mol_Feturizer/Test_systems_manuscript/rnas/4lx5

>  <Rbt.Executable>
rbdock ($Id: //depot/dev/client3/rdock/2013.1/src/exe/rbdock.cxx#4 $)

>  <Rbt.Library>
libRbt.so (2013.1, Build901 2013/11/27)

>  <Rbt.Parameter_File>
/export/apps/rDock/src/rDock_2013.1_src/data/scripts/dock_solv.prm

>  <Rbt.Receptor>
prm/blind_docking_20.prm

>  <SCORE>
-7.0539

>  <SCORE.INTER>
-7.0539

>  <SCORE.INTER.CONST>
1

>  <SCORE.INTER.POLAR>
0

>  <SCORE.INTER.ROT>
0

>  <SCORE.INTER.SOLV>
5.09701

>  <SCORE.INTER.VDW>
-10.0016

>  <SCORE.INTER.norm>
-0.587825

>  <SCORE.INTRA>
0

>  <SCORE.INTRA.DIHEDRAL>
0

>  <SCORE.INTRA.DIHEDRAL.0>
0

>  <SCORE.INTRA.POLAR>
0

>  <SCORE.INTRA.POLAR.0>
0

>  <SCORE.INTRA.REPUL>
0

>  <SCORE.INTRA.REPUL.0>
0

>  <SCORE.INTRA.SOLV>
0

>  <SCORE.INTRA.SOLV.lig_0>
-48.1583

>  <SCORE.INTRA.VDW>
0

>  <SCORE.INTRA.VDW.0>
0

>  <SCORE.INTRA.norm>
0

>  <SCORE.RESTR>
0

>  <SCORE.RESTR.CAVITY>
0

>  <SCORE.RESTR.norm>
0

>  <SCORE.SYSTEM>
0

>  <SCORE.SYSTEM.CONST>
0

>  <SCORE.SYSTEM.DIHEDRAL>
0

>  <SCORE.SYSTEM.SOLV>
0

>  <SCORE.SYSTEM.norm>
0

>  <SCORE.heavy>
12

>  <SCORE.norm>
-0.587825

>  <RMSD>
13.989

$$$$
ligand
 OpenBabel02271912143D
libRbt.so/2013.1/901 2013/11/27
 12 13  0  0  0  0  0  0  0  0999 V2000
   -8.1294   15.2888    3.0403 C   0  0  0  0  0  0  0  0  0  0  0  0
   -7.9003   13.3736    1.7310 C   0  0  0  0  0  0  0  0  0  0  0  0
   -8.7218   15.9113    4.0555 N   0  0  0  0  0  0  0  0  0  0  0  0
   -8.2446   12.1288    1.3831 N   0  0  0  0  0  0  0  0  0  0  0  0
   -8.5023   14.0270    2.7336 N   0  0  0  0  0  0  0  0  0  0  0  0
   -7.1493   15.9150    2.3519 N   0  0  0  0  0  0  0  0  0  0  0  0
   -5.2638   13.9889   -0.7865 N   0  0  0  0  0  0  0  0  0  0  0  0
   -4.8993   15.2979   -0.4354 C   0  0  0  0  0  0  0  0  0  0  0  0
   -5.5559   15.9522    0.6329 N   0  0  0  0  0  0  0  0  0  0  0  0
   -6.5172   15.2998    1.3214 C   0  0  0  0  0  0  0  0  0  0  0  0
   -6.8840   13.9911    0.9915 C   0  0  0  0  0  0  0  0  0  0  0  0
   -6.2681   13.3173   -0.0616 C   0  0  0  0  0  0  0  0  0  0  0  0
  1  3  1  0  0  0  0
  1  5  1  0  0  0  0
  1  6  2  0  0  0  0
  2  5  2  0  0  0  0
  2 11  1  0  0  0  0
  2  4  1  0  0  0  0
  6 10  1  0  0  0  0
  7  8  2  0  0  0  0
  7 12  1  0  0  0  0
  8  9  1  0  0  0  0
  9 10  2  0  0  0  0
 10 11  1  0  0  0  0
 11 12  2  0  0  0  0
M  END
>  <CHROM.1>
-7.02115631,14.54964658,1.43733814,-2.66971368,-0.75536582,-2.62727512

>  <Name>
ligand

>  <RI>
0

>  <Rbt.Current_Directory>
/home/itssahil/PROJECTS/Mol_Feturizer/Test_systems_manuscript/rnas/4lx5

>  <Rbt.Executable>
rbdock ($Id: //depot/dev/client3/rdock/2013.1/src/exe/rbdock.cxx#4 $)

>  <Rbt.Library>
libRbt.so (2013.1, Build901 2013/11/27)

>  <Rbt.Parameter_File>
/export/apps/rDock/src/rDock_2013.1_src/data/scripts/dock_solv.prm

>  <Rbt.Receptor>
prm/blind_docking_20.prm

>  <SCORE>
-7.07039

>  <SCORE.INTER>
-7.07039

>  <SCORE.INTER.CONST>
1

>  <SCORE.INTER.POLAR>
0

>  <SCORE.INTER.ROT>
0

>  <SCORE.INTER.SOLV>
5.14046

>  <SCORE.INTER.VDW>
-10.0271

>  <SCORE.INTER.norm>
-0.589199

>  <SCORE.INTRA>
0

>  <SCORE.INTRA.DIHEDRAL>
0

>  <SCORE.INTRA.DIHEDRAL.0>
0

>  <SCORE.INTRA.POLAR>
0

>  <SCORE.INTRA.POLAR.0>
0

>  <SCORE.INTRA.REPUL>
0

>  <SCORE.INTRA.REPUL.0>
0

>  <SCORE.INTRA.SOLV>
0

>  <SCORE.INTRA.SOLV.lig_0>
-48.1583

>  <SCORE.INTRA.VDW>
0

>  <SCORE.INTRA.VDW.0>
0

>  <SCORE.INTRA.norm>
0

>  <SCORE.RESTR>
0

>  <SCORE.RESTR.CAVITY>
0

>  <SCORE.RESTR.norm>
0

>  <SCORE.SYSTEM>
0

>  <SCORE.SYSTEM.CONST>
0

>  <SCORE.SYSTEM.DIHEDRAL>
0

>  <SCORE.SYSTEM.SOLV>
0

>  <SCORE.SYSTEM.norm>
0

>  <SCORE.heavy>
12

>  <SCORE.norm>
-0.589199

>  <RMSD>
13.994

$$$$
ligand
 OpenBabel02271912143D
libRbt.so/2013.1/901 2013/11/27
 12 13  0  0  0  0  0  0  0  0999 V2000
   -8.2943   15.3642    2.7919 C   0  0  0  0  0  0  0  0  0  0  0  0
   -7.8912   13.3904    1.6186 C   0  0  0  0  0  0  0  0  0  0  0  0
   -8.9910   16.0181    3.7170 N   0  0  0  0  0  0  0  0  0  0  0  0
   -8.1630   12.1163    1.3157 N   0  0  0  0  0  0  0  0  0  0  0  0
   -8.5975   14.0742    2.5287 N   0  0  0  0  0  0  0  0  0  0  0  0
   -7.2809   15.9888    2.1519 N   0  0  0  0  0  0  0  0  0  0  0  0
   -5.0729   13.9673   -0.7036 N   0  0  0  0  0  0  0  0  0  0  0  0
   -4.7835   15.3065   -0.3996 C   0  0  0  0  0  0  0  0  0  0  0  0
   -5.5497   15.9927    0.5713 N   0  0  0  0  0  0  0  0  0  0  0  0
   -6.5435   15.3427    1.2144 C   0  0  0  0  0  0  0  0  0  0  0  0
   -6.8371   14.0049    0.9313 C   0  0  0  0  0  0  0  0  0  0  0  0
   -6.1120   13.2986   -0.0267 C   0  0  0  0  0  0  0  0  0  0  0  0
  1  3  1  0  0  0  0
  1  5  1  0  0  0  0
  1  6  2  0  0  0  0
  2  5  2  0  0  0  0
  2 11  1  0  0  0  0
  2  4  1  0  0  0  0
  6 10  1  0  0  0  0
  7  8  2  0  0  0  0
  7 12  1  0  0  0  0
  8  9  1  0  0  0  0
  9 10  2  0  0  0  0
 10 11  1  0  0  0  0
 11 12  2  0  0  0  0
M  END
>  <CHROM.1>
-7.03012866,14.58132079,1.33129942,-2.76203129,-0.69578490,-2.74486107

>  <Name>
ligand

>  <RI>
0

>  <Rbt.Current_Directory>
/home/itssahil/PROJECTS/Mol_Feturizer/Test_systems_manuscript/rnas/4lx5

>  <Rbt.Executable>
rbdock ($Id: //depot/dev/client3/rdock/2013.1/src/exe/rbdock.cxx#4 $)

>  <Rbt.Library>
libRbt.so (2013.1, Build901 2013/11/27)

>  <Rbt.Parameter_File>
/export/apps/rDock/src/rDock_2013.1_src/data/scripts/dock_solv.prm

>  <Rbt.Receptor>
prm/blind_docking_20.prm

>  <SCORE>
-7.07655

>  <SCORE.INTER>
-7.07655

>  <SCORE.INTER.CONST>
1

>  <SCORE.INTER.POLAR>
0

>  <SCORE.INTER.ROT>
0

>  <SCORE.INTER.SOLV>
4.85891

>  <SCORE.INTER.VDW>
-9.93734

>  <SCORE.INTER.norm>
-0.589712

>  <SCORE.INTRA>
0

>  <SCORE.INTRA.DIHEDRAL>
0

>  <SCORE.INTRA.DIHEDRAL.0>
0

>  <SCORE.INTRA.POLAR>
0

>  <SCORE.INTRA.POLAR.0>
0

>  <SCORE.INTRA.REPUL>
0

>  <SCORE.INTRA.REPUL.0>
0

>  <SCORE.INTRA.SOLV>
0

>  <SCORE.INTRA.SOLV.lig_0>
-48.1583

>  <SCORE.INTRA.VDW>
0

>  <SCORE.INTRA.VDW.0>
0

>  <SCORE.INTRA.norm>
0

>  <SCORE.RESTR>
0

>  <SCORE.RESTR.CAVITY>
0

>  <SCORE.RESTR.norm>
0

>  <SCORE.SYSTEM>
0

>  <SCORE.SYSTEM.CONST>
0

>  <SCORE.SYSTEM.DIHEDRAL>
0

>  <SCORE.SYSTEM.SOLV>
0

>  <SCORE.SYSTEM.norm>
0

>  <SCORE.heavy>
12

>  <SCORE.norm>
-0.589712

>  <RMSD>
13.999

$$$$
ligand
 OpenBabel02271912143D
libRbt.so/2013.1/901 2013/11/27
 12 13  0  0  0  0  0  0  0  0999 V2000
   -8.1708   15.3379    3.0268 C   0  0  0  0  0  0  0  0  0  0  0  0
   -7.9070   13.3982    1.7608 C   0  0  0  0  0  0  0  0  0  0  0  0
   -8.7813   15.9752    4.0218 N   0  0  0  0  0  0  0  0  0  0  0  0
   -8.2345   12.1429    1.4353 N   0  0  0  0  0  0  0  0  0  0  0  0
   -8.5273   14.0661    2.7425 N   0  0  0  0  0  0  0  0  0  0  0  0
   -7.1892   15.9597    2.3366 N   0  0  0  0  0  0  0  0  0  0  0  0
   -5.2477   13.9880   -0.7387 N   0  0  0  0  0  0  0  0  0  0  0  0
   -4.9006   15.3078   -0.4111 C   0  0  0  0  0  0  0  0  0  0  0  0
   -5.5763   15.9775    0.6356 N   0  0  0  0  0  0  0  0  0  0  0  0
   -6.5389   15.3296    1.3267 C   0  0  0  0  0  0  0  0  0  0  0  0
   -6.8885   14.0106    1.0202 C   0  0  0  0  0  0  0  0  0  0  0  0
   -6.2535   13.3214   -0.0114 C   0  0  0  0  0  0  0  0  0  0  0  0
  1  3  1  0  0  0  0
  1  5  1  0  0  0  0
  1  6  2  0  0  0  0
  2  5  2  0  0  0  0
  2 11  1  0  0  0  0
  2  4  1  0  0  0  0
  6 10  1  0  0  0  0
  7  8  2  0  0  0  0
  7 12  1  0  0  0  0
  8  9  1  0  0  0  0
  9 10  2  0  0  0  0
 10 11  1  0  0  0  0
 11 12  2  0  0  0  0
M  END
>  <CHROM.1>
-7.03648038,14.57688429,1.45256085,-2.68965436,-0.75011235,-2.66188906

>  <Name>
ligand

>  <RI>
0

>  <Rbt.Current_Directory>
/home/itssahil/PROJECTS/Mol_Feturizer/Test_systems_manuscript/rnas/4lx5

>  <Rbt.Executable>
rbdock ($Id: //depot/dev/client3/rdock/2013.1/src/exe/rbdock.cxx#4 $)

>  <Rbt.Library>
libRbt.so (2013.1, Build901 2013/11/27)

>  <Rbt.Parameter_File>
/export/apps/rDock/src/rDock_2013.1_src/data/scripts/dock_solv.prm

>  <Rbt.Receptor>
prm/blind_docking_20.prm

>  <SCORE>
-7.08104

>  <SCORE.INTER>
-7.08104

>  <SCORE.INTER.CONST>
1

>  <SCORE.INTER.POLAR>
0

>  <SCORE.INTER.ROT>
0

>  <SCORE.INTER.SOLV>
5.01174

>  <SCORE.INTER.VDW>
-9.99127

>  <SCORE.INTER.norm>
-0.590086

>  <SCORE.INTRA>
0

>  <SCORE.INTRA.DIHEDRAL>
0

>  <SCORE.INTRA.DIHEDRAL.0>
0

>  <SCORE.INTRA.POLAR>
0

>  <SCORE.INTRA.POLAR.0>
0

>  <SCORE.INTRA.REPUL>
0

>  <SCORE.INTRA.REPUL.0>
0

>  <SCORE.INTRA.SOLV>
0

>  <SCORE.INTRA.SOLV.lig_0>
-48.1583

>  <SCORE.INTRA.VDW>
0

>  <SCORE.INTRA.VDW.0>
0

>  <SCORE.INTRA.norm>
0

>  <SCORE.RESTR>
0

>  <SCORE.RESTR.CAVITY>
0

>  <SCORE.RESTR.norm>
0

>  <SCORE.SYSTEM>
0

>  <SCORE.SYSTEM.CONST>
0

>  <SCORE.SYSTEM.DIHEDRAL>
0

>  <SCORE.SYSTEM.SOLV>
0

>  <SCORE.SYSTEM.norm>
0

>  <SCORE.heavy>
12

>  <SCORE.norm>
-0.590086

>  <RMSD>
13.999

$$$$
ligand
 OpenBabel02271912143D
libRbt.so/2013.1/901 2013/11/27
 12 13  0  0  0  0  0  0  0  0999 V2000
   -8.1696   15.3179    3.0348 C   0  0  0  0  0  0  0  0  0  0  0  0
   -7.9079   13.3813    1.7635 C   0  0  0  0  0  0  0  0  0  0  0  0
   -8.7785   15.9528    4.0323 N   0  0  0  0  0  0  0  0  0  0  0  0
   -8.2362   12.1269    1.4352 N   0  0  0  0  0  0  0  0  0  0  0  0
   -8.5267   14.0469    2.7478 N   0  0  0  0  0  0  0  0  0  0  0  0
   -7.1888   15.9413    2.3448 N   0  0  0  0  0  0  0  0  0  0  0  0
   -5.2520   13.9771   -0.7383 N   0  0  0  0  0  0  0  0  0  0  0  0
   -4.9043   15.2959   -0.4079 C   0  0  0  0  0  0  0  0  0  0  0  0
   -5.5783   15.9631    0.6415 N   0  0  0  0  0  0  0  0  0  0  0  0
   -6.5401   15.3136    1.3323 C   0  0  0  0  0  0  0  0  0  0  0  0
   -6.8904   13.9954    1.0229 C   0  0  0  0  0  0  0  0  0  0  0  0
   -6.2570   13.3087   -0.0112 C   0  0  0  0  0  0  0  0  0  0  0  0
  1  3  1  0  0  0  0
  1  5  1  0  0  0  0
  1  6  2  0  0  0  0
  2  5  2  0  0  0  0
  2 11  1  0  0  0  0
  2  4  1  0  0  0  0
  6 10  1  0  0  0  0
  7  8  2  0  0  0  0
  7 12  1  0  0  0  0
  8  9  1  0  0  0  0
  9 10  2  0  0  0  0
 10 11  1  0  0  0  0
 11 12  2  0  0  0  0
M  END
>  <CHROM.1>
-7.03763805,14.56067790,1.45697537,-2.68853063,-0.75129063,-2.65858169

>  <Name>
ligand

>  <RI>
0

>  <Rbt.Current_Directory>
/home/itssahil/PROJECTS/Mol_Feturizer/Test_systems_manuscript/rnas/4lx5

>  <Rbt.Executable>
rbdock ($Id: //depot/dev/client3/rdock/2013.1/src/exe/rbdock.cxx#4 $)

>  <Rbt.Library>
libRbt.so (2013.1, Build901 2013/11/27)

>  <Rbt.Parameter_File>
/export/apps/rDock/src/rDock_2013.1_src/data/scripts/dock_solv.prm

>  <Rbt.Receptor>
prm/blind_docking_20.prm

>  <SCORE>
-7.08046

>  <SCORE.INTER>
-7.08046

>  <SCORE.INTER.CONST>
1

>  <SCORE.INTER.POLAR>
0

>  <SCORE.INTER.ROT>
0

>  <SCORE.INTER.SOLV>
5.02104

>  <SCORE.INTER.VDW>
-9.99398

>  <SCORE.INTER.norm>
-0.590038

>  <SCORE.INTRA>
0

>  <SCORE.INTRA.DIHEDRAL>
0

>  <SCORE.INTRA.DIHEDRAL.0>
0

>  <SCORE.INTRA.POLAR>
0

>  <SCORE.INTRA.POLAR.0>
0

>  <SCORE.INTRA.REPUL>
0

>  <SCORE.INTRA.REPUL.0>
0

>  <SCORE.INTRA.SOLV>
0

>  <SCORE.INTRA.SOLV.lig_0>
-48.1583

>  <SCORE.INTRA.VDW>
0

>  <SCORE.INTRA.VDW.0>
0

>  <SCORE.INTRA.norm>
0

>  <SCORE.RESTR>
0

>  <SCORE.RESTR.CAVITY>
0

>  <SCORE.RESTR.norm>
0

>  <SCORE.SYSTEM>
0

>  <SCORE.SYSTEM.CONST>
0

>  <SCORE.SYSTEM.DIHEDRAL>
0

>  <SCORE.SYSTEM.SOLV>
0

>  <SCORE.SYSTEM.norm>
0

>  <SCORE.heavy>
12

>  <SCORE.norm>
-0.590038

>  <RMSD>
14.003

$$$$
ligand
 OpenBabel02271912143D
libRbt.so/2013.1/901 2013/11/27
 12 13  0  0  0  0  0  0  0  0999 V2000
   -8.2024   15.3241    2.9625 C   0  0  0  0  0  0  0  0  0  0  0  0
   -7.9224   13.3827    1.7027 C   0  0  0  0  0  0  0  0  0  0  0  0
   -8.8284   15.9642    3.9461 N   0  0  0  0  0  0  0  0  0  0  0  0
   -8.2481   12.1282    1.3722 N   0  0  0  0  0  0  0  0  0  0  0  0
   -8.5578   14.0533    2.6728 N   0  0  0  0  0  0  0  0  0  0  0  0
   -7.2068   15.9424    2.2894 N   0  0  0  0  0  0  0  0  0  0  0  0
   -5.2174   13.9623   -0.7498 N   0  0  0  0  0  0  0  0  0  0  0  0
   -4.8720   15.2812   -0.4169 C   0  0  0  0  0  0  0  0  0  0  0  0
   -5.5639   15.9538    0.6172 N   0  0  0  0  0  0  0  0  0  0  0  0
   -6.5407   15.3095    1.2916 C   0  0  0  0  0  0  0  0  0  0  0  0
   -6.8890   13.9913    0.9798 C   0  0  0  0  0  0  0  0  0  0  0  0
   -6.2380   13.2994   -0.0399 C   0  0  0  0  0  0  0  0  0  0  0  0
  1  3  1  0  0  0  0
  1  5  1  0  0  0  0
  1  6  2  0  0  0  0
  2  5  2  0  0  0  0
  2 11  1  0  0  0  0
  2  4  1  0  0  0  0
  6 10  1  0  0  0  0
  7  8  2  0  0  0  0
  7 12  1  0  0  0  0
  8  9  1  0  0  0  0
  9 10  2  0  0  0  0
 10 11  1  0  0  0  0
 11 12  2  0  0  0  0
M  END
>  <CHROM.1>
-7.04282433,14.55843405,1.40909281,-2.69684858,-0.73292104,-2.66743274

>  <Name>
ligand

>  <RI>
0

>  <Rbt.Current_Directory>
/home/itssahil/PROJECTS/Mol_Feturizer/Test_systems_manuscript/rnas/4lx5

>  <Rbt.Executable>
rbdock ($Id: //depot/dev/client3/rdock/2013.1/src/exe/rbdock.cxx#4 $)

>  <Rbt.Library>
libRbt.so (2013.1, Build901 2013/11/27)

>  <Rbt.Parameter_File>
/export/apps/rDock/src/rDock_2013.1_src/data/scripts/dock_solv.prm

>  <Rbt.Receptor>
prm/blind_docking_100.prm

>  <SCORE>
-7.07383

>  <SCORE.INTER>
-7.07383

>  <SCORE.INTER.CONST>
1

>  <SCORE.INTER.POLAR>
0

>  <SCORE.INTER.ROT>
0

>  <SCORE.INTER.SOLV>
4.99262

>  <SCORE.INTER.VDW>
-9.9801

>  <SCORE.INTER.norm>
-0.589486

>  <SCORE.INTRA>
0

>  <SCORE.INTRA.DIHEDRAL>
0

>  <SCORE.INTRA.DIHEDRAL.0>
0

>  <SCORE.INTRA.POLAR>
0

>  <SCORE.INTRA.POLAR.0>
0

>  <SCORE.INTRA.REPUL>
0

>  <SCORE.INTRA.REPUL.0>
0

>  <SCORE.INTRA.SOLV>
0

>  <SCORE.INTRA.SOLV.lig_0>
-48.1583

>  <SCORE.INTRA.VDW>
0

>  <SCORE.INTRA.VDW.0>
0

>  <SCORE.INTRA.norm>
0

>  <SCORE.RESTR>
0

>  <SCORE.RESTR.CAVITY>
0

>  <SCORE.RESTR.norm>
0

>  <SCORE.SYSTEM>
0

>  <SCORE.SYSTEM.CONST>
0

>  <SCORE.SYSTEM.DIHEDRAL>
0

>  <SCORE.SYSTEM.SOLV>
0

>  <SCORE.SYSTEM.norm>
0

>  <SCORE.heavy>
12

>  <SCORE.norm>
-0.589486

>  <RMSD>
14.013

$$$$
ligand
 OpenBabel02271912143D
libRbt.so/2013.1/901 2013/11/27
 12 13  0  0  0  0  0  0  0  0999 V2000
   -8.2239   15.3300    2.9373 C   0  0  0  0  0  0  0  0  0  0  0  0
   -7.9258   13.3789    1.6966 C   0  0  0  0  0  0  0  0  0  0  0  0
   -8.8618   15.9765    3.9089 N   0  0  0  0  0  0  0  0  0  0  0  0
   -8.2449   12.1209    1.3732 N   0  0  0  0  0  0  0  0  0  0  0  0
   -8.5731   14.0559    2.6544 N   0  0  0  0  0  0  0  0  0  0  0  0
   -7.2226   15.9451    2.2696 N   0  0  0  0  0  0  0  0  0  0  0  0
   -5.1963   13.9450   -0.7318 N   0  0  0  0  0  0  0  0  0  0  0  0
   -4.8577   15.2675   -0.4063 C   0  0  0  0  0  0  0  0  0  0  0  0
   -5.5622   15.9469    0.6149 N   0  0  0  0  0  0  0  0  0  0  0  0
   -6.5445   15.3057    1.2842 C   0  0  0  0  0  0  0  0  0  0  0  0
   -6.8863   13.9841    0.9797 C   0  0  0  0  0  0  0  0  0  0  0  0
   -6.2228   13.2854   -0.0273 C   0  0  0  0  0  0  0  0  0  0  0  0
  1  3  1  0  0  0  0
  1  5  1  0  0  0  0
  1  6  2  0  0  0  0
  2  5  2  0  0  0  0
  2 11  1  0  0  0  0
  2  4  1  0  0  0  0
  6 10  1  0  0  0  0
  7  8  2  0  0  0  0
  7 12  1  0  0  0  0
  8  9  1  0  0  0  0
  9 10  2  0  0  0  0
 10 11  1  0  0  0  0
 11 12  2  0  0  0  0
M  END
>  <CHROM.1>
-7.04600007,14.55436755,1.40262909,-2.70620682,-0.72456783,-2.68195816

>  <Name>
ligand

>  <RI>
0

>  <Rbt.Current_Directory>
/home/itssahil/PROJECTS/Mol_Feturizer/Test_systems_manuscript/rnas/4lx5

>  <Rbt.Executable>
rbdock ($Id: //depot/dev/client3/rdock/2013.1/src/exe/rbdock.cxx#4 $)

>  <Rbt.Library>
libRbt.so (2013.1, Build901 2013/11/27)

>  <Rbt.Parameter_File>
/export/apps/rDock/src/rDock_2013.1_src/data/scripts/dock_solv.prm

>  <Rbt.Receptor>
prm/blind_docking_20.prm

>  <SCORE>
-7.07169

>  <SCORE.INTER>
-7.07169

>  <SCORE.INTER.CONST>
1

>  <SCORE.INTER.POLAR>
0

>  <SCORE.INTER.ROT>
0

>  <SCORE.INTER.SOLV>
4.95919

>  <SCORE.INTER.VDW>
-9.96752

>  <SCORE.INTER.norm>
-0.589308

>  <SCORE.INTRA>
0

>  <SCORE.INTRA.DIHEDRAL>
0

>  <SCORE.INTRA.DIHEDRAL.0>
0

>  <SCORE.INTRA.POLAR>
0

>  <SCORE.INTRA.POLAR.0>
0

>  <SCORE.INTRA.REPUL>
0

>  <SCORE.INTRA.REPUL.0>
0

>  <SCORE.INTRA.SOLV>
0

>  <SCORE.INTRA.SOLV.lig_0>
-48.1583

>  <SCORE.INTRA.VDW>
0

>  <SCORE.INTRA.VDW.0>
0

>  <SCORE.INTRA.norm>
0

>  <SCORE.RESTR>
0

>  <SCORE.RESTR.CAVITY>
0

>  <SCORE.RESTR.norm>
0

>  <SCORE.SYSTEM>
0

>  <SCORE.SYSTEM.CONST>
0

>  <SCORE.SYSTEM.DIHEDRAL>
0

>  <SCORE.SYSTEM.SOLV>
0

>  <SCORE.SYSTEM.norm>
0

>  <SCORE.heavy>
12

>  <SCORE.norm>
-0.589308

>  <RMSD>
14.016

$$$$
ligand
 OpenBabel02271912143D
libRbt.so/2013.1/901 2013/11/27
 12 13  0  0  0  0  0  0  0  0999 V2000
   -8.2049   15.3038    2.9647 C   0  0  0  0  0  0  0  0  0  0  0  0
   -7.9193   13.3630    1.7051 C   0  0  0  0  0  0  0  0  0  0  0  0
   -8.8325   15.9421    3.9484 N   0  0  0  0  0  0  0  0  0  0  0  0
   -8.2413   12.1074    1.3751 N   0  0  0  0  0  0  0  0  0  0  0  0
   -8.5565   14.0319    2.6754 N   0  0  0  0  0  0  0  0  0  0  0  0
   -7.2113   15.9249    2.2911 N   0  0  0  0  0  0  0  0  0  0  0  0
   -5.2169   13.9504   -0.7483 N   0  0  0  0  0  0  0  0  0  0  0  0
   -4.8755   15.2704   -0.4159 C   0  0  0  0  0  0  0  0  0  0  0  0
   -5.5691   15.9411    0.6184 N   0  0  0  0  0  0  0  0  0  0  0  0
   -6.5437   15.2939    1.2932 C   0  0  0  0  0  0  0  0  0  0  0  0
   -6.8880   13.9746    0.9818 C   0  0  0  0  0  0  0  0  0  0  0  0
   -6.2353   13.2845   -0.0380 C   0  0  0  0  0  0  0  0  0  0  0  0
  1  3  1  0  0  0  0
  1  5  1  0  0  0  0
  1  6  2  0  0  0  0
  2  5  2  0  0  0  0
  2 11  1  0  0  0  0
  2  4  1  0  0  0  0
  6 10  1  0  0  0  0
  7  8  2  0  0  0  0
  7 12  1  0  0  0  0
  8  9  1  0  0  0  0
  9 10  2  0  0  0  0
 10 11  1  0  0  0  0
 11 12  2  0  0  0  0
M  END
>  <CHROM.1>
-7.04346348,14.54133007,1.41104256,-2.70031201,-0.73461001,-2.66995492

>  <Name>
ligand

>  <RI>
0

>  <Rbt.Current_Directory>
/home/itssahil/PROJECTS/Mol_Feturizer/Test_systems_manuscript/rnas/4lx5

>  <Rbt.Executable>
rbdock ($Id: //depot/dev/client3/rdock/2013.1/src/exe/rbdock.cxx#4 $)

>  <Rbt.Library>
libRbt.so (2013.1, Build901 2013/11/27)

>  <Rbt.Parameter_File>
/export/apps/rDock/src/rDock_2013.1_src/data/scripts/dock_solv.prm

>  <Rbt.Receptor>
prm/blind_docking_20.prm

>  <SCORE>
-7.06923

>  <SCORE.INTER>
-7.06923

>  <SCORE.INTER.CONST>
1

>  <SCORE.INTER.POLAR>
0

>  <SCORE.INTER.ROT>
0

>  <SCORE.INTER.SOLV>
4.98116

>  <SCORE.INTER.VDW>
-9.97321

>  <SCORE.INTER.norm>
-0.589102

>  <SCORE.INTRA>
0

>  <SCORE.INTRA.DIHEDRAL>
0

>  <SCORE.INTRA.DIHEDRAL.0>
0

>  <SCORE.INTRA.POLAR>
0

>  <SCORE.INTRA.POLAR.0>
0

>  <SCORE.INTRA.REPUL>
0

>  <SCORE.INTRA.REPUL.0>
0

>  <SCORE.INTRA.SOLV>
0

>  <SCORE.INTRA.SOLV.lig_0>
-48.1583

>  <SCORE.INTRA.VDW>
0

>  <SCORE.INTRA.VDW.0>
0

>  <SCORE.INTRA.norm>
0

>  <SCORE.RESTR>
0

>  <SCORE.RESTR.CAVITY>
0

>  <SCORE.RESTR.norm>
0

>  <SCORE.SYSTEM>
0

>  <SCORE.SYSTEM.CONST>
0

>  <SCORE.SYSTEM.DIHEDRAL>
0

>  <SCORE.SYSTEM.SOLV>
0

>  <SCORE.SYSTEM.norm>
0

>  <SCORE.heavy>
12

>  <SCORE.norm>
-0.589102

>  <RMSD>
14.016

$$$$
ligand
 OpenBabel02271912143D
libRbt.so/2013.1/901 2013/11/27
 12 13  0  0  0  0  0  0  0  0999 V2000
   -8.2267   15.3327    2.9424 C   0  0  0  0  0  0  0  0  0  0  0  0
   -7.9324   13.3894    1.6886 C   0  0  0  0  0  0  0  0  0  0  0  0
   -8.8623   15.9735    3.9193 N   0  0  0  0  0  0  0  0  0  0  0  0
   -8.2531   12.1338    1.3577 N   0  0  0  0  0  0  0  0  0  0  0  0
   -8.5774   14.0608    2.6519 N   0  0  0  0  0  0  0  0  0  0  0  0
   -7.2261   15.9513    2.2770 N   0  0  0  0  0  0  0  0  0  0  0  0
   -5.2067   13.9690   -0.7409 N   0  0  0  0  0  0  0  0  0  0  0  0
   -4.8665   15.2891   -0.4075 C   0  0  0  0  0  0  0  0  0  0  0  0
   -5.5686   15.9625    0.6193 N   0  0  0  0  0  0  0  0  0  0  0  0
   -6.5502   15.3177    1.2862 C   0  0  0  0  0  0  0  0  0  0  0  0
   -6.8936   13.9984    0.9738 C   0  0  0  0  0  0  0  0  0  0  0  0
   -6.2325   13.3057   -0.0388 C   0  0  0  0  0  0  0  0  0  0  0  0
  1  3  1  0  0  0  0
  1  5  1  0  0  0  0
  1  6  2  0  0  0  0
  2  5  2  0  0  0  0
  2 11  1  0  0  0  0
  2  4  1  0  0  0  0
  6 10  1  0  0  0  0
  7  8  2  0  0  0  0
  7 12  1  0  0  0  0
  8  9  1  0  0  0  0
  9 10  2  0  0  0  0
 10 11  1  0  0  0  0
 11 12  2  0  0  0  0
M  END
>  <CHROM.1>
-7.05215759,14.56604574,1.40067229,-2.70418372,-0.72580543,-2.67415923

>  <Name>
ligand

>  <RI>
0

>  <Rbt.Current_Directory>
/home/itssahil/PROJECTS/Mol_Feturizer/Test_systems_manuscript/rnas/4lx5

>  <Rbt.Executable>
rbdock ($Id: //depot/dev/client3/rdock/2013.1/src/exe/rbdock.cxx#4 $)

>  <Rbt.Library>
libRbt.so (2013.1, Build901 2013/11/27)

>  <Rbt.Parameter_File>
/export/apps/rDock/src/rDock_2013.1_src/data/scripts/dock_solv.prm

>  <Rbt.Receptor>
prm/blind_docking_20.prm

>  <SCORE>
-7.07421

>  <SCORE.INTER>
-7.07421

>  <SCORE.INTER.CONST>
1

>  <SCORE.INTER.POLAR>
0

>  <SCORE.INTER.ROT>
0

>  <SCORE.INTER.SOLV>
4.96211

>  <SCORE.INTER.VDW>
-9.97018

>  <SCORE.INTER.norm>
-0.589518

>  <SCORE.INTRA>
0

>  <SCORE.INTRA.DIHEDRAL>
0

>  <SCORE.INTRA.DIHEDRAL.0>
0

>  <SCORE.INTRA.POLAR>
0

>  <SCORE.INTRA.POLAR.0>
0

>  <SCORE.INTRA.REPUL>
0

>  <SCORE.INTRA.REPUL.0>
0

>  <SCORE.INTRA.SOLV>
0

>  <SCORE.INTRA.SOLV.lig_0>
-48.1583

>  <SCORE.INTRA.VDW>
0

>  <SCORE.INTRA.VDW.0>
0

>  <SCORE.INTRA.norm>
0

>  <SCORE.RESTR>
0

>  <SCORE.RESTR.CAVITY>
0

>  <SCORE.RESTR.norm>
0

>  <SCORE.SYSTEM>
0

>  <SCORE.SYSTEM.CONST>
0

>  <SCORE.SYSTEM.DIHEDRAL>
0

>  <SCORE.SYSTEM.SOLV>
0

>  <SCORE.SYSTEM.norm>
0

>  <SCORE.heavy>
12

>  <SCORE.norm>
-0.589518

>  <RMSD>
14.020

$$$$
ligand
 OpenBabel02271912143D
libRbt.so/2013.1/901 2013/11/27
 12 13  0  0  0  0  0  0  0  0999 V2000
   -8.1928   11.9760    0.8894 C   0  0  0  0  0  0  0  0  0  0  0  0
   -6.1387   11.2653    0.0466 C   0  0  0  0  0  0  0  0  0  0  0  0
   -9.3880   11.6707    1.3866 N   0  0  0  0  0  0  0  0  0  0  0  0
   -5.2821   10.3127   -0.3378 N   0  0  0  0  0  0  0  0  0  0  0  0
   -7.3565   10.9792    0.5259 N   0  0  0  0  0  0  0  0  0  0  0  0
   -7.8244   13.2719    0.7815 N   0  0  0  0  0  0  0  0  0  0  0  0
   -4.0983   14.2496   -0.7267 N   0  0  0  0  0  0  0  0  0  0  0  0
   -4.9917   15.2580   -0.3336 C   0  0  0  0  0  0  0  0  0  0  0  0
   -6.2673   14.9148    0.1721 N   0  0  0  0  0  0  0  0  0  0  0  0
   -6.6063   13.6130    0.2919 C   0  0  0  0  0  0  0  0  0  0  0  0
   -5.7231   12.5961   -0.0846 C   0  0  0  0  0  0  0  0  0  0  0  0
   -4.4621   12.8946   -0.5975 C   0  0  0  0  0  0  0  0  0  0  0  0
  1  3  1  0  0  0  0
  1  5  1  0  0  0  0
  1  6  2  0  0  0  0
  2  5  2  0  0  0  0
  2 11  1  0  0  0  0
  2  4  1  0  0  0  0
  6 10  1  0  0  0  0
  7  8  2  0  0  0  0
  7 12  1  0  0  0  0
  8  9  1  0  0  0  0
  9 10  2  0  0  0  0
 10 11  1  0  0  0  0
 11 12  2  0  0  0  0
M  END
>  <CHROM.1>
-6.38716996,12.73607739,0.17797714,2.49143862,-0.38816483,-3.11798725

>  <Name>
ligand

>  <RI>
0

>  <Rbt.Current_Directory>
/home/itssahil/PROJECTS/Mol_Feturizer/Test_systems_manuscript/rnas/4lx5

>  <Rbt.Executable>
rbdock ($Id: //depot/dev/client3/rdock/2013.1/src/exe/rbdock.cxx#4 $)

>  <Rbt.Library>
libRbt.so (2013.1, Build901 2013/11/27)

>  <Rbt.Parameter_File>
/export/apps/rDock/src/rDock_2013.1_src/data/scripts/dock_solv.prm

>  <Rbt.Receptor>
prm/blind_docking_20.prm

>  <SCORE>
-5.45925

>  <SCORE.INTER>
-5.45925

>  <SCORE.INTER.CONST>
1

>  <SCORE.INTER.POLAR>
0

>  <SCORE.INTER.ROT>
0

>  <SCORE.INTER.SOLV>
13.5464

>  <SCORE.INTER.VDW>
-11.755

>  <SCORE.INTER.norm>
-0.454937

>  <SCORE.INTRA>
0

>  <SCORE.INTRA.DIHEDRAL>
0

>  <SCORE.INTRA.DIHEDRAL.0>
0

>  <SCORE.INTRA.POLAR>
0

>  <SCORE.INTRA.POLAR.0>
0

>  <SCORE.INTRA.REPUL>
0

>  <SCORE.INTRA.REPUL.0>
0

>  <SCORE.INTRA.SOLV>
0

>  <SCORE.INTRA.SOLV.lig_0>
-48.1583

>  <SCORE.INTRA.VDW>
0

>  <SCORE.INTRA.VDW.0>
0

>  <SCORE.INTRA.norm>
0

>  <SCORE.RESTR>
0

>  <SCORE.RESTR.CAVITY>
0

>  <SCORE.RESTR.norm>
0

>  <SCORE.SYSTEM>
0

>  <SCORE.SYSTEM.CONST>
0

>  <SCORE.SYSTEM.DIHEDRAL>
0

>  <SCORE.SYSTEM.SOLV>
0

>  <SCORE.SYSTEM.norm>
0

>  <SCORE.heavy>
12

>  <SCORE.norm>
-0.454937

>  <RMSD>
14.056

$$$$
ligand
 OpenBabel02271912143D
libRbt.so/2013.1/901 2013/11/27
 12 13  0  0  0  0  0  0  0  0999 V2000
   -8.4013   15.4312    2.6885 C   0  0  0  0  0  0  0  0  0  0  0  0
   -8.0083   13.4398    1.5419 C   0  0  0  0  0  0  0  0  0  0  0  0
   -9.1093   16.1075    3.5887 N   0  0  0  0  0  0  0  0  0  0  0  0
   -8.2990   12.1693    1.2412 N   0  0  0  0  0  0  0  0  0  0  0  0
   -8.7248   14.1459    2.4266 N   0  0  0  0  0  0  0  0  0  0  0  0
   -7.3572   16.0287    2.0725 N   0  0  0  0  0  0  0  0  0  0  0  0
   -5.1145   13.9373   -0.7044 N   0  0  0  0  0  0  0  0  0  0  0  0
   -4.8048   15.2724   -0.4026 C   0  0  0  0  0  0  0  0  0  0  0  0
   -5.5829   15.9828    0.5412 N   0  0  0  0  0  0  0  0  0  0  0  0
   -6.6081   15.3594    1.1610 C   0  0  0  0  0  0  0  0  0  0  0  0
   -6.9225   14.0259    0.8799 C   0  0  0  0  0  0  0  0  0  0  0  0
   -6.1863   13.2964   -0.0519 C   0  0  0  0  0  0  0  0  0  0  0  0
  1  3  1  0  0  0  0
  1  5  1  0  0  0  0
  1  6  2  0  0  0  0
  2  5  2  0  0  0  0
  2 11  1  0  0  0  0
  2  4  1  0  0  0  0
  6 10  1  0  0  0  0
  7  8  2  0  0  0  0
  7 12  1  0  0  0  0
  8  9  1  0  0  0  0
  9 10  2  0  0  0  0
 10 11  1  0  0  0  0
 11 12  2  0  0  0  0
M  END
>  <CHROM.1>
-7.11407273,14.60960634,1.26995834,-2.75046949,-0.66163697,-2.74548410

>  <Name>
ligand

>  <RI>
0

>  <Rbt.Current_Directory>
/home/itssahil/PROJECTS/Mol_Feturizer/Test_systems_manuscript/rnas/4lx5

>  <Rbt.Executable>
rbdock ($Id: //depot/dev/client3/rdock/2013.1/src/exe/rbdock.cxx#4 $)

>  <Rbt.Library>
libRbt.so (2013.1, Build901 2013/11/27)

>  <Rbt.Parameter_File>
/export/apps/rDock/src/rDock_2013.1_src/data/scripts/dock_solv.prm

>  <Rbt.Receptor>
prm/blind_docking_40.prm

>  <SCORE>
-7.0359

>  <SCORE.INTER>
-7.0359

>  <SCORE.INTER.CONST>
1

>  <SCORE.INTER.POLAR>
0

>  <SCORE.INTER.ROT>
0

>  <SCORE.INTER.SOLV>
4.8033

>  <SCORE.INTER.VDW>
-9.8917

>  <SCORE.INTER.norm>
-0.586325

>  <SCORE.INTRA>
0

>  <SCORE.INTRA.DIHEDRAL>
0

>  <SCORE.INTRA.DIHEDRAL.0>
0

>  <SCORE.INTRA.POLAR>
0

>  <SCORE.INTRA.POLAR.0>
0

>  <SCORE.INTRA.REPUL>
0

>  <SCORE.INTRA.REPUL.0>
0

>  <SCORE.INTRA.SOLV>
0

>  <SCORE.INTRA.SOLV.lig_0>
-48.1583

>  <SCORE.INTRA.VDW>
0

>  <SCORE.INTRA.VDW.0>
0

>  <SCORE.INTRA.norm>
0

>  <SCORE.RESTR>
0

>  <SCORE.RESTR.CAVITY>
0

>  <SCORE.RESTR.norm>
0

>  <SCORE.SYSTEM>
0

>  <SCORE.SYSTEM.CONST>
0

>  <SCORE.SYSTEM.DIHEDRAL>
0

>  <SCORE.SYSTEM.SOLV>
0

>  <SCORE.SYSTEM.norm>
0

>  <SCORE.heavy>
12

>  <SCORE.norm>
-0.586325

>  <RMSD>
14.077

$$$$
ligand
 OpenBabel02271912143D
libRbt.so/2013.1/901 2013/11/27
 12 13  0  0  0  0  0  0  0  0999 V2000
   -8.5841   15.3150    2.0062 C   0  0  0  0  0  0  0  0  0  0  0  0
   -7.9090   13.2545    1.1496 C   0  0  0  0  0  0  0  0  0  0  0  0
   -9.4595   16.0236    2.7135 N   0  0  0  0  0  0  0  0  0  0  0  0
   -8.0794   11.9436    0.9458 N   0  0  0  0  0  0  0  0  0  0  0  0
   -8.7920   13.9908    1.8372 N   0  0  0  0  0  0  0  0  0  0  0  0
   -7.4911   15.9221    1.4929 N   0  0  0  0  0  0  0  0  0  0  0  0
   -4.7324   13.7347   -0.6798 N   0  0  0  0  0  0  0  0  0  0  0  0
   -4.5470   15.1113   -0.4789 C   0  0  0  0  0  0  0  0  0  0  0  0
   -5.5002   15.8531    0.2572 N   0  0  0  0  0  0  0  0  0  0  0  0
   -6.5737   15.2220    0.7799 C   0  0  0  0  0  0  0  0  0  0  0  0
   -6.7670   13.8488    0.5984 C   0  0  0  0  0  0  0  0  0  0  0  0
   -5.8560   13.0862   -0.1301 C   0  0  0  0  0  0  0  0  0  0  0  0
  1  3  1  0  0  0  0
  1  5  1  0  0  0  0
  1  6  2  0  0  0  0
  2  5  2  0  0  0  0
  2 11  1  0  0  0  0
  2  4  1  0  0  0  0
  6 10  1  0  0  0  0
  7  8  2  0  0  0  0
  7 12  1  0  0  0  0
  8  9  1  0  0  0  0
  9 10  2  0  0  0  0
 10 11  1  0  0  0  0
 11 12  2  0  0  0  0
M  END
>  <CHROM.1>
-7.04868326,14.45257398,0.89122046,-2.87929937,-0.53443582,-2.92068559

>  <Name>
ligand

>  <RI>
0

>  <Rbt.Current_Directory>
/home/itssahil/PROJECTS/Mol_Feturizer/Test_systems_manuscript/rnas/4lx5

>  <Rbt.Executable>
rbdock ($Id: //depot/dev/client3/rdock/2013.1/src/exe/rbdock.cxx#4 $)

>  <Rbt.Library>
libRbt.so (2013.1, Build901 2013/11/27)

>  <Rbt.Parameter_File>
/export/apps/rDock/src/rDock_2013.1_src/data/scripts/dock_solv.prm

>  <Rbt.Receptor>
prm/blind_docking_20.prm

>  <SCORE>
-6.97538

>  <SCORE.INTER>
-6.97538

>  <SCORE.INTER.CONST>
1

>  <SCORE.INTER.POLAR>
0

>  <SCORE.INTER.ROT>
0

>  <SCORE.INTER.SOLV>
5.40185

>  <SCORE.INTER.VDW>
-10.0509

>  <SCORE.INTER.norm>
-0.581281

>  <SCORE.INTRA>
0

>  <SCORE.INTRA.DIHEDRAL>
0

>  <SCORE.INTRA.DIHEDRAL.0>
0

>  <SCORE.INTRA.POLAR>
0

>  <SCORE.INTRA.POLAR.0>
0

>  <SCORE.INTRA.REPUL>
0

>  <SCORE.INTRA.REPUL.0>
0

>  <SCORE.INTRA.SOLV>
0

>  <SCORE.INTRA.SOLV.lig_0>
-48.1583

>  <SCORE.INTRA.VDW>
0

>  <SCORE.INTRA.VDW.0>
0

>  <SCORE.INTRA.norm>
0

>  <SCORE.RESTR>
0

>  <SCORE.RESTR.CAVITY>
0

>  <SCORE.RESTR.norm>
0

>  <SCORE.SYSTEM>
0

>  <SCORE.SYSTEM.CONST>
0

>  <SCORE.SYSTEM.DIHEDRAL>
0

>  <SCORE.SYSTEM.SOLV>
0

>  <SCORE.SYSTEM.norm>
0

>  <SCORE.heavy>
12

>  <SCORE.norm>
-0.581281

>  <RMSD>
14.083

$$$$
ligand
 OpenBabel02271912143D
libRbt.so/2013.1/901 2013/11/27
 12 13  0  0  0  0  0  0  0  0999 V2000
   -8.6294   15.3531    1.9231 C   0  0  0  0  0  0  0  0  0  0  0  0
   -7.9558   13.2879    1.0769 C   0  0  0  0  0  0  0  0  0  0  0  0
   -9.5124   16.0686    2.6138 N   0  0  0  0  0  0  0  0  0  0  0  0
   -8.1339   11.9788    0.8676 N   0  0  0  0  0  0  0  0  0  0  0  0
   -8.8458   14.0311    1.7478 N   0  0  0  0  0  0  0  0  0  0  0  0
   -7.5208   15.9510    1.4328 N   0  0  0  0  0  0  0  0  0  0  0  0
   -4.7389   13.7419   -0.6874 N   0  0  0  0  0  0  0  0  0  0  0  0
   -4.5451   15.1164   -0.4806 C   0  0  0  0  0  0  0  0  0  0  0  0
   -5.5062   15.8658    0.2373 N   0  0  0  0  0  0  0  0  0  0  0  0
   -6.5957   15.2437    0.7373 C   0  0  0  0  0  0  0  0  0  0  0  0
   -6.7977   13.8725    0.5498 C   0  0  0  0  0  0  0  0  0  0  0  0
   -5.8791   13.1028   -0.1615 C   0  0  0  0  0  0  0  0  0  0  0  0
  1  3  1  0  0  0  0
  1  5  1  0  0  0  0
  1  6  2  0  0  0  0
  2  5  2  0  0  0  0
  2 11  1  0  0  0  0
  2  4  1  0  0  0  0
  6 10  1  0  0  0  0
  7  8  2  0  0  0  0
  7 12  1  0  0  0  0
  8  9  1  0  0  0  0
  9 10  2  0  0  0  0
 10 11  1  0  0  0  0
 11 12  2  0  0  0  0
M  END
>  <CHROM.1>
-7.07970926,14.47842017,0.83781508,-2.87424828,-0.51281454,-2.91663772

>  <Name>
ligand

>  <RI>
0

>  <Rbt.Current_Directory>
/home/itssahil/PROJECTS/Mol_Feturizer/Test_systems_manuscript/rnas/4lx5

>  <Rbt.Executable>
rbdock ($Id: //depot/dev/client3/rdock/2013.1/src/exe/rbdock.cxx#4 $)

>  <Rbt.Library>
libRbt.so (2013.1, Build901 2013/11/27)

>  <Rbt.Parameter_File>
/export/apps/rDock/src/rDock_2013.1_src/data/scripts/dock_solv.prm

>  <Rbt.Receptor>
prm/blind_docking_20.prm

>  <SCORE>
-6.95858

>  <SCORE.INTER>
-6.95858

>  <SCORE.INTER.CONST>
1

>  <SCORE.INTER.POLAR>
0

>  <SCORE.INTER.ROT>
0

>  <SCORE.INTER.SOLV>
5.59214

>  <SCORE.INTER.VDW>
-10.1031

>  <SCORE.INTER.norm>
-0.579882

>  <SCORE.INTRA>
0

>  <SCORE.INTRA.DIHEDRAL>
0

>  <SCORE.INTRA.DIHEDRAL.0>
0

>  <SCORE.INTRA.POLAR>
0

>  <SCORE.INTRA.POLAR.0>
0

>  <SCORE.INTRA.REPUL>
0

>  <SCORE.INTRA.REPUL.0>
0

>  <SCORE.INTRA.SOLV>
0

>  <SCORE.INTRA.SOLV.lig_0>
-48.1583

>  <SCORE.INTRA.VDW>
0

>  <SCORE.INTRA.VDW.0>
0

>  <SCORE.INTRA.norm>
0

>  <SCORE.RESTR>
0

>  <SCORE.RESTR.CAVITY>
0

>  <SCORE.RESTR.norm>
0

>  <SCORE.SYSTEM>
0

>  <SCORE.SYSTEM.CONST>
0

>  <SCORE.SYSTEM.DIHEDRAL>
0

>  <SCORE.SYSTEM.SOLV>
0

>  <SCORE.SYSTEM.norm>
0

>  <SCORE.heavy>
12

>  <SCORE.norm>
-0.579882

>  <RMSD>
14.112

$$$$
ligand
 OpenBabel02271912143D
libRbt.so/2013.1/901 2013/11/27
 12 13  0  0  0  0  0  0  0  0999 V2000
  -10.3664   18.5133    1.3265 C   0  0  0  0  0  0  0  0  0  0  0  0
   -9.6106   17.8627    3.4337 C   0  0  0  0  0  0  0  0  0  0  0  0
  -11.2254   19.2113    0.5892 N   0  0  0  0  0  0  0  0  0  0  0  0
   -9.6928   17.8479    4.7687 N   0  0  0  0  0  0  0  0  0  0  0  0
  -10.4814   18.5385    2.6723 N   0  0  0  0  0  0  0  0  0  0  0  0
   -9.3796   17.8149    0.7222 N   0  0  0  0  0  0  0  0  0  0  0  0
   -6.6708   15.6649    2.9926 N   0  0  0  0  0  0  0  0  0  0  0  0
   -6.5793   15.6668    1.5922 C   0  0  0  0  0  0  0  0  0  0  0  0
   -7.5155   16.3970    0.8234 N   0  0  0  0  0  0  0  0  0  0  0  0
   -8.4801   17.1058    1.4488 C   0  0  0  0  0  0  0  0  0  0  0  0
   -8.5779   17.1235    2.8439 C   0  0  0  0  0  0  0  0  0  0  0  0
   -7.6811   16.4077    3.6350 C   0  0  0  0  0  0  0  0  0  0  0  0
  1  3  1  0  0  0  0
  1  5  1  0  0  0  0
  1  6  2  0  0  0  0
  2  5  2  0  0  0  0
  2 11  1  0  0  0  0
  2  4  1  0  0  0  0
  6 10  1  0  0  0  0
  7  8  2  0  0  0  0
  7 12  1  0  0  0  0
  8  9  1  0  0  0  0
  9 10  2  0  0  0  0
 10 11  1  0  0  0  0
 11 12  2  0  0  0  0
M  END
>  <CHROM.1>
-8.87853138,17.36405919,2.22641826,-2.95226764,-0.64361394,1.61797241

>  <Name>
ligand

>  <RI>
0

>  <Rbt.Current_Directory>
/home/itssahil/PROJECTS/Mol_Feturizer/Test_systems_manuscript/rnas/4lx5

>  <Rbt.Executable>
rbdock ($Id: //depot/dev/client3/rdock/2013.1/src/exe/rbdock.cxx#4 $)

>  <Rbt.Library>
libRbt.so (2013.1, Build901 2013/11/27)

>  <Rbt.Parameter_File>
/export/apps/rDock/src/rDock_2013.1_src/data/scripts/dock_solv.prm

>  <Rbt.Receptor>
prm/blind_docking_80.prm

>  <SCORE>
-4.95989

>  <SCORE.INTER>
-4.95989

>  <SCORE.INTER.CONST>
1

>  <SCORE.INTER.POLAR>
0

>  <SCORE.INTER.ROT>
0

>  <SCORE.INTER.SOLV>
4.8658

>  <SCORE.INTER.VDW>
-8.52853

>  <SCORE.INTER.norm>
-0.413324

>  <SCORE.INTRA>
0

>  <SCORE.INTRA.DIHEDRAL>
0

>  <SCORE.INTRA.DIHEDRAL.0>
0

>  <SCORE.INTRA.POLAR>
0

>  <SCORE.INTRA.POLAR.0>
0

>  <SCORE.INTRA.REPUL>
0

>  <SCORE.INTRA.REPUL.0>
0

>  <SCORE.INTRA.SOLV>
0

>  <SCORE.INTRA.SOLV.lig_0>
-48.1583

>  <SCORE.INTRA.VDW>
0

>  <SCORE.INTRA.VDW.0>
0

>  <SCORE.INTRA.norm>
0

>  <SCORE.RESTR>
0

>  <SCORE.RESTR.CAVITY>
0

>  <SCORE.RESTR.norm>
0

>  <SCORE.SYSTEM>
0

>  <SCORE.SYSTEM.CONST>
0

>  <SCORE.SYSTEM.DIHEDRAL>
0

>  <SCORE.SYSTEM.SOLV>
0

>  <SCORE.SYSTEM.norm>
0

>  <SCORE.heavy>
12

>  <SCORE.norm>
-0.413324

>  <RMSD>
15.320

$$$$
ligand
 OpenBabel02271912143D
libRbt.so/2013.1/901 2013/11/27
 12 13  0  0  0  0  0  0  0  0999 V2000
   -8.2904   12.9127    4.8460 C   0  0  0  0  0  0  0  0  0  0  0  0
   -8.1348   14.4498    3.1002 C   0  0  0  0  0  0  0  0  0  0  0  0
   -8.1133   12.6280    6.1330 N   0  0  0  0  0  0  0  0  0  0  0  0
   -7.7928   15.6418    2.5989 N   0  0  0  0  0  0  0  0  0  0  0  0
   -7.9409   14.1346    4.3877 N   0  0  0  0  0  0  0  0  0  0  0  0
   -8.8399   11.9894    4.0261 N   0  0  0  0  0  0  0  0  0  0  0  0
   -9.4369   12.8613    0.0263 N   0  0  0  0  0  0  0  0  0  0  0  0
   -9.7926   11.6044    0.5395 C   0  0  0  0  0  0  0  0  0  0  0  0
   -9.5762   11.3116    1.9063 N   0  0  0  0  0  0  0  0  0  0  0  0
   -9.0461   12.2567    2.7124 C   0  0  0  0  0  0  0  0  0  0  0  0
   -8.6969   13.5180    2.2190 C   0  0  0  0  0  0  0  0  0  0  0  0
   -8.8845   13.8400    0.8761 C   0  0  0  0  0  0  0  0  0  0  0  0
  1  3  1  0  0  0  0
  1  5  1  0  0  0  0
  1  6  2  0  0  0  0
  2  5  2  0  0  0  0
  2 11  1  0  0  0  0
  2  4  1  0  0  0  0
  6 10  1  0  0  0  0
  7  8  2  0  0  0  0
  7 12  1  0  0  0  0
  8  9  1  0  0  0  0
  9 10  2  0  0  0  0
 10 11  1  0  0  0  0
 11 12  2  0  0  0  0
M  END
>  <CHROM.1>
-8.70478439,13.09561268,2.81154764,0.78095320,1.15510206,2.12641346

>  <Name>
ligand

>  <RI>
0

>  <Rbt.Current_Directory>
/home/itssahil/PROJECTS/Mol_Feturizer/Test_systems_manuscript/rnas/4lx5

>  <Rbt.Executable>
rbdock ($Id: //depot/dev/client3/rdock/2013.1/src/exe/rbdock.cxx#4 $)

>  <Rbt.Library>
libRbt.so (2013.1, Build901 2013/11/27)

>  <Rbt.Parameter_File>
/export/apps/rDock/src/rDock_2013.1_src/data/scripts/dock_solv.prm

>  <Rbt.Receptor>
prm/blind_docking_20.prm

>  <SCORE>
-5.76882

>  <SCORE.INTER>
-5.76882

>  <SCORE.INTER.CONST>
1

>  <SCORE.INTER.POLAR>
0

>  <SCORE.INTER.ROT>
0

>  <SCORE.INTER.SOLV>
2.84009

>  <SCORE.INTER.VDW>
-8.39257

>  <SCORE.INTER.norm>
-0.480735

>  <SCORE.INTRA>
0

>  <SCORE.INTRA.DIHEDRAL>
0

>  <SCORE.INTRA.DIHEDRAL.0>
0

>  <SCORE.INTRA.POLAR>
0

>  <SCORE.INTRA.POLAR.0>
0

>  <SCORE.INTRA.REPUL>
0

>  <SCORE.INTRA.REPUL.0>
0

>  <SCORE.INTRA.SOLV>
0

>  <SCORE.INTRA.SOLV.lig_0>
-48.1583

>  <SCORE.INTRA.VDW>
0

>  <SCORE.INTRA.VDW.0>
0

>  <SCORE.INTRA.norm>
0

>  <SCORE.RESTR>
0

>  <SCORE.RESTR.CAVITY>
0

>  <SCORE.RESTR.norm>
0

>  <SCORE.SYSTEM>
0

>  <SCORE.SYSTEM.CONST>
0

>  <SCORE.SYSTEM.DIHEDRAL>
0

>  <SCORE.SYSTEM.SOLV>
0

>  <SCORE.SYSTEM.norm>
0

>  <SCORE.heavy>
12

>  <SCORE.norm>
-0.480735

>  <RMSD>
16.012

$$$$
ligand
 OpenBabel02271912143D
libRbt.so/2013.1/901 2013/11/27
 12 13  0  0  0  0  0  0  0  0999 V2000
   -7.8623   16.1177   -0.7969 C   0  0  0  0  0  0  0  0  0  0  0  0
   -9.1843   18.0365   -0.7224 C   0  0  0  0  0  0  0  0  0  0  0  0
   -6.7096   15.5398   -1.1226 N   0  0  0  0  0  0  0  0  0  0  0  0
   -9.4103   19.3295   -0.9794 N   0  0  0  0  0  0  0  0  0  0  0  0
   -8.0403   17.4298   -1.0654 N   0  0  0  0  0  0  0  0  0  0  0  0
   -8.8229   15.3938   -0.1806 N   0  0  0  0  0  0  0  0  0  0  0  0
  -12.4039   17.1748    0.8775 N   0  0  0  0  0  0  0  0  0  0  0  0
  -12.1810   15.8154    1.1454 C   0  0  0  0  0  0  0  0  0  0  0  0
  -10.9573   15.2124    0.7716 N   0  0  0  0  0  0  0  0  0  0  0  0
  -10.0027   15.9598    0.1767 C   0  0  0  0  0  0  0  0  0  0  0  0
  -10.2048   17.3184   -0.0869 C   0  0  0  0  0  0  0  0  0  0  0  0
  -11.4012   17.9454    0.2563 C   0  0  0  0  0  0  0  0  0  0  0  0
  1  3  1  0  0  0  0
  1  5  1  0  0  0  0
  1  6  2  0  0  0  0
  2  5  2  0  0  0  0
  2 11  1  0  0  0  0
  2  4  1  0  0  0  0
  6 10  1  0  0  0  0
  7  8  2  0  0  0  0
  7 12  1  0  0  0  0
  8  9  1  0  0  0  0
  9 10  2  0  0  0  0
 10 11  1  0  0  0  0
 11 12  2  0  0  0  0
M  END
>  <CHROM.1>
-9.73634064,16.76565321,-0.15454697,-0.06203849,-0.39324707,2.88303252

>  <Name>
ligand

>  <RI>
0

>  <Rbt.Current_Directory>
/home/itssahil/PROJECTS/Mol_Feturizer/Test_systems_manuscript/rnas/4lx5

>  <Rbt.Executable>
rbdock ($Id: //depot/dev/client3/rdock/2013.1/src/exe/rbdock.cxx#4 $)

>  <Rbt.Library>
libRbt.so (2013.1, Build901 2013/11/27)

>  <Rbt.Parameter_File>
/export/apps/rDock/src/rDock_2013.1_src/data/scripts/dock_solv.prm

>  <Rbt.Receptor>
prm/blind_docking_40.prm

>  <SCORE>
-4.88624

>  <SCORE.INTER>
-4.88624

>  <SCORE.INTER.CONST>
1

>  <SCORE.INTER.POLAR>
0

>  <SCORE.INTER.ROT>
0

>  <SCORE.INTER.SOLV>
7.10978

>  <SCORE.INTER.VDW>
-9.22742

>  <SCORE.INTER.norm>
-0.407187

>  <SCORE.INTRA>
0

>  <SCORE.INTRA.DIHEDRAL>
0

>  <SCORE.INTRA.DIHEDRAL.0>
0

>  <SCORE.INTRA.POLAR>
0

>  <SCORE.INTRA.POLAR.0>
0

>  <SCORE.INTRA.REPUL>
0

>  <SCORE.INTRA.REPUL.0>
0

>  <SCORE.INTRA.SOLV>
0

>  <SCORE.INTRA.SOLV.lig_0>
-48.1583

>  <SCORE.INTRA.VDW>
0

>  <SCORE.INTRA.VDW.0>
0

>  <SCORE.INTRA.norm>
0

>  <SCORE.RESTR>
0

>  <SCORE.RESTR.CAVITY>
0

>  <SCORE.RESTR.norm>
0

>  <SCORE.SYSTEM>
0

>  <SCORE.SYSTEM.CONST>
0

>  <SCORE.SYSTEM.DIHEDRAL>
0

>  <SCORE.SYSTEM.SOLV>
0

>  <SCORE.SYSTEM.norm>
0

>  <SCORE.heavy>
12

>  <SCORE.norm>
-0.407187

>  <RMSD>
16.506

$$$$
ligand
 OpenBabel02271912143D
libRbt.so/2013.1/901 2013/11/27
 12 13  0  0  0  0  0  0  0  0999 V2000
  -10.5923   18.1384    4.1939 C   0  0  0  0  0  0  0  0  0  0  0  0
   -9.7954   18.5294    2.0382 C   0  0  0  0  0  0  0  0  0  0  0  0
  -10.6069   18.4712    5.4815 N   0  0  0  0  0  0  0  0  0  0  0  0
   -9.0232   19.1800    1.1611 N   0  0  0  0  0  0  0  0  0  0  0  0
   -9.8052   18.8325    3.3431 N   0  0  0  0  0  0  0  0  0  0  0  0
  -11.3819   17.1336    3.7538 N   0  0  0  0  0  0  0  0  0  0  0  0
  -11.3847   16.1014   -0.2524 N   0  0  0  0  0  0  0  0  0  0  0  0
  -12.1934   15.4065    0.6601 C   0  0  0  0  0  0  0  0  0  0  0  0
  -12.1790   15.7599    2.0296 N   0  0  0  0  0  0  0  0  0  0  0  0
  -11.3991   16.7817    2.4439 C   0  0  0  0  0  0  0  0  0  0  0  0
  -10.5961   17.4916    1.5454 C   0  0  0  0  0  0  0  0  0  0  0  0
  -10.5746   17.1657    0.1906 C   0  0  0  0  0  0  0  0  0  0  0  0
  1  3  1  0  0  0  0
  1  5  1  0  0  0  0
  1  6  2  0  0  0  0
  2  5  2  0  0  0  0
  2 11  1  0  0  0  0
  2  4  1  0  0  0  0
  6 10  1  0  0  0  0
  7  8  2  0  0  0  0
  7 12  1  0  0  0  0
  8  9  1  0  0  0  0
  9 10  2  0  0  0  0
 10 11  1  0  0  0  0
 11 12  2  0  0  0  0
M  END
>  <CHROM.1>
-10.78940148,17.42855128,2.24415690,1.14749754,0.84078818,1.32181325

>  <Name>
ligand

>  <RI>
0

>  <Rbt.Current_Directory>
/home/itssahil/PROJECTS/Mol_Feturizer/Test_systems_manuscript/rnas/4lx5

>  <Rbt.Executable>
rbdock ($Id: //depot/dev/client3/rdock/2013.1/src/exe/rbdock.cxx#4 $)

>  <Rbt.Library>
libRbt.so (2013.1, Build901 2013/11/27)

>  <Rbt.Parameter_File>
/export/apps/rDock/src/rDock_2013.1_src/data/scripts/dock_solv.prm

>  <Rbt.Receptor>
prm/blind_docking_60.prm

>  <SCORE>
-6.00206

>  <SCORE.INTER>
-6.00206

>  <SCORE.INTER.CONST>
1

>  <SCORE.INTER.POLAR>
0

>  <SCORE.INTER.ROT>
0

>  <SCORE.INTER.SOLV>
10.5592

>  <SCORE.INTER.VDW>
-11.1211

>  <SCORE.INTER.norm>
-0.500172

>  <SCORE.INTRA>
0

>  <SCORE.INTRA.DIHEDRAL>
0

>  <SCORE.INTRA.DIHEDRAL.0>
0

>  <SCORE.INTRA.POLAR>
0

>  <SCORE.INTRA.POLAR.0>
0

>  <SCORE.INTRA.REPUL>
0

>  <SCORE.INTRA.REPUL.0>
0

>  <SCORE.INTRA.SOLV>
0

>  <SCORE.INTRA.SOLV.lig_0>
-48.1583

>  <SCORE.INTRA.VDW>
0

>  <SCORE.INTRA.VDW.0>
0

>  <SCORE.INTRA.norm>
0

>  <SCORE.RESTR>
0

>  <SCORE.RESTR.CAVITY>
0

>  <SCORE.RESTR.norm>
0

>  <SCORE.SYSTEM>
0

>  <SCORE.SYSTEM.CONST>
0

>  <SCORE.SYSTEM.DIHEDRAL>
0

>  <SCORE.SYSTEM.SOLV>
0

>  <SCORE.SYSTEM.norm>
0

>  <SCORE.heavy>
12

>  <SCORE.norm>
-0.500172

>  <RMSD>
17.442

$$$$
ligand
 OpenBabel02271912143D
libRbt.so/2013.1/901 2013/11/27
 12 13  0  0  0  0  0  0  0  0999 V2000
  -13.5009   30.0419   -3.6698 C   0  0  0  0  0  0  0  0  0  0  0  0
  -15.6201   30.9464   -4.0244 C   0  0  0  0  0  0  0  0  0  0  0  0
  -12.2236   30.2236   -3.3469 N   0  0  0  0  0  0  0  0  0  0  0  0
  -16.4699   31.9762   -4.1040 N   0  0  0  0  0  0  0  0  0  0  0  0
  -14.3246   31.1113   -3.7258 N   0  0  0  0  0  0  0  0  0  0  0  0
  -13.9593   28.7931   -3.9090 N   0  0  0  0  0  0  0  0  0  0  0  0
  -17.9361   28.1944   -4.8790 N   0  0  0  0  0  0  0  0  0  0  0  0
  -17.0520   27.1070   -4.8059 C   0  0  0  0  0  0  0  0  0  0  0  0
  -15.6918   27.3220   -4.4829 N   0  0  0  0  0  0  0  0  0  0  0  0
  -15.2601   28.5756   -4.2260 C   0  0  0  0  0  0  0  0  0  0  0  0
  -16.1309   29.6685   -4.2834 C   0  0  0  0  0  0  0  0  0  0  0  0
  -17.4752   29.4982   -4.6092 C   0  0  0  0  0  0  0  0  0  0  0  0
  1  3  1  0  0  0  0
  1  5  1  0  0  0  0
  1  6  2  0  0  0  0
  2  5  2  0  0  0  0
  2 11  1  0  0  0  0
  2  4  1  0  0  0  0
  6 10  1  0  0  0  0
  7  8  2  0  0  0  0
  7 12  1  0  0  0  0
  8  9  1  0  0  0  0
  9 10  2  0  0  0  0
 10 11  1  0  0  0  0
 11 12  2  0  0  0  0
M  END
>  <CHROM.1>
-15.44203177,29.46625152,-4.16471001,-0.59263956,0.21917917,-3.02359120

>  <Name>
ligand

>  <RI>
0

>  <Rbt.Current_Directory>
/home/itssahil/PROJECTS/Mol_Feturizer/Test_systems_manuscript/rnas/4lx5

>  <Rbt.Executable>
rbdock ($Id: //depot/dev/client3/rdock/2013.1/src/exe/rbdock.cxx#4 $)

>  <Rbt.Library>
libRbt.so (2013.1, Build901 2013/11/27)

>  <Rbt.Parameter_File>
/export/apps/rDock/src/rDock_2013.1_src/data/scripts/dock_solv.prm

>  <Rbt.Receptor>
prm/blind_docking_60.prm

>  <SCORE>
-8.03804

>  <SCORE.INTER>
-8.03804

>  <SCORE.INTER.CONST>
1

>  <SCORE.INTER.POLAR>
0

>  <SCORE.INTER.ROT>
0

>  <SCORE.INTER.SOLV>
5.01088

>  <SCORE.INTER.VDW>
-10.629

>  <SCORE.INTER.norm>
-0.669837

>  <SCORE.INTRA>
0

>  <SCORE.INTRA.DIHEDRAL>
0

>  <SCORE.INTRA.DIHEDRAL.0>
0

>  <SCORE.INTRA.POLAR>
0

>  <SCORE.INTRA.POLAR.0>
0

>  <SCORE.INTRA.REPUL>
0

>  <SCORE.INTRA.REPUL.0>
0

>  <SCORE.INTRA.SOLV>
0

>  <SCORE.INTRA.SOLV.lig_0>
-48.1583

>  <SCORE.INTRA.VDW>
0

>  <SCORE.INTRA.VDW.0>
0

>  <SCORE.INTRA.norm>
0

>  <SCORE.RESTR>
0

>  <SCORE.RESTR.CAVITY>
0

>  <SCORE.RESTR.norm>
0

>  <SCORE.SYSTEM>
0

>  <SCORE.SYSTEM.CONST>
0

>  <SCORE.SYSTEM.DIHEDRAL>
0

>  <SCORE.SYSTEM.SOLV>
0

>  <SCORE.SYSTEM.norm>
0

>  <SCORE.heavy>
12

>  <SCORE.norm>
-0.669837

>  <RMSD>
26.065

$$$$
ligand
 OpenBabel02271912143D
libRbt.so/2013.1/901 2013/11/27
 12 13  0  0  0  0  0  0  0  0999 V2000
  -13.5479   30.2206   -3.6224 C   0  0  0  0  0  0  0  0  0  0  0  0
  -15.6835   31.0579   -4.0387 C   0  0  0  0  0  0  0  0  0  0  0  0
  -12.2796   30.4465   -3.2921 N   0  0  0  0  0  0  0  0  0  0  0  0
  -16.5566   32.0625   -4.1703 N   0  0  0  0  0  0  0  0  0  0  0  0
  -14.3962   31.2664   -3.7318 N   0  0  0  0  0  0  0  0  0  0  0  0
  -13.9732   28.9523   -3.8158 N   0  0  0  0  0  0  0  0  0  0  0  0
  -17.9218   28.2177   -4.8073 N   0  0  0  0  0  0  0  0  0  0  0  0
  -17.0129   27.1561   -4.6794 C   0  0  0  0  0  0  0  0  0  0  0  0
  -15.6625   27.4172   -4.3494 N   0  0  0  0  0  0  0  0  0  0  0  0
  -15.2642   28.6904   -4.1389 C   0  0  0  0  0  0  0  0  0  0  0  0
  -16.1602   29.7585   -4.2512 C   0  0  0  0  0  0  0  0  0  0  0  0
  -17.4958   29.5423   -4.5856 C   0  0  0  0  0  0  0  0  0  0  0  0
  1  3  1  0  0  0  0
  1  5  1  0  0  0  0
  1  6  2  0  0  0  0
  2  5  2  0  0  0  0
  2 11  1  0  0  0  0
  2  4  1  0  0  0  0
  6 10  1  0  0  0  0
  7  8  2  0  0  0  0
  7 12  1  0  0  0  0
  8  9  1  0  0  0  0
  9 10  2  0  0  0  0
 10 11  1  0  0  0  0
 11 12  2  0  0  0  0
M  END
>  <CHROM.1>
-15.46823027,29.57808430,-4.11623965,-0.61860887,0.22898720,-3.05856993

>  <Name>
ligand

>  <RI>
0

>  <Rbt.Current_Directory>
/home/itssahil/PROJECTS/Mol_Feturizer/Test_systems_manuscript/rnas/4lx5

>  <Rbt.Executable>
rbdock ($Id: //depot/dev/client3/rdock/2013.1/src/exe/rbdock.cxx#4 $)

>  <Rbt.Library>
libRbt.so (2013.1, Build901 2013/11/27)

>  <Rbt.Parameter_File>
/export/apps/rDock/src/rDock_2013.1_src/data/scripts/dock_solv.prm

>  <Rbt.Receptor>
prm/blind_docking_100.prm

>  <SCORE>
-8.00288

>  <SCORE.INTER>
-8.00288

>  <SCORE.INTER.CONST>
1

>  <SCORE.INTER.POLAR>
0

>  <SCORE.INTER.ROT>
0

>  <SCORE.INTER.SOLV>
5.25112

>  <SCORE.INTER.VDW>
-10.6856

>  <SCORE.INTER.norm>
-0.666906

>  <SCORE.INTRA>
0

>  <SCORE.INTRA.DIHEDRAL>
0

>  <SCORE.INTRA.DIHEDRAL.0>
0

>  <SCORE.INTRA.POLAR>
0

>  <SCORE.INTRA.POLAR.0>
0

>  <SCORE.INTRA.REPUL>
0

>  <SCORE.INTRA.REPUL.0>
0

>  <SCORE.INTRA.SOLV>
0

>  <SCORE.INTRA.SOLV.lig_0>
-48.1583

>  <SCORE.INTRA.VDW>
0

>  <SCORE.INTRA.VDW.0>
0

>  <SCORE.INTRA.norm>
0

>  <SCORE.RESTR>
0

>  <SCORE.RESTR.CAVITY>
0

>  <SCORE.RESTR.norm>
0

>  <SCORE.SYSTEM>
0

>  <SCORE.SYSTEM.CONST>
0

>  <SCORE.SYSTEM.DIHEDRAL>
0

>  <SCORE.SYSTEM.SOLV>
0

>  <SCORE.SYSTEM.norm>
0

>  <SCORE.heavy>
12

>  <SCORE.norm>
-0.666906

>  <RMSD>
26.121

$$$$
ligand
 OpenBabel02271912143D
libRbt.so/2013.1/901 2013/11/27
 12 13  0  0  0  0  0  0  0  0999 V2000
  -13.5958   30.1761   -3.6594 C   0  0  0  0  0  0  0  0  0  0  0  0
  -15.7333   31.0045   -4.0835 C   0  0  0  0  0  0  0  0  0  0  0  0
  -12.3320   30.4061   -3.3148 N   0  0  0  0  0  0  0  0  0  0  0  0
  -16.6121   32.0049   -4.2095 N   0  0  0  0  0  0  0  0  0  0  0  0
  -14.4503   31.2175   -3.7624 N   0  0  0  0  0  0  0  0  0  0  0  0
  -14.0106   28.9077   -3.8734 N   0  0  0  0  0  0  0  0  0  0  0  0
  -17.9452   28.1598   -4.9099 N   0  0  0  0  0  0  0  0  0  0  0  0
  -17.0301   27.1027   -4.7881 C   0  0  0  0  0  0  0  0  0  0  0  0
  -15.6845   27.3686   -4.4426 N   0  0  0  0  0  0  0  0  0  0  0  0
  -15.2969   28.6415   -4.2116 C   0  0  0  0  0  0  0  0  0  0  0  0
  -16.1992   29.7048   -4.3176 C   0  0  0  0  0  0  0  0  0  0  0  0
  -17.5302   29.4841   -4.6667 C   0  0  0  0  0  0  0  0  0  0  0  0
  1  3  1  0  0  0  0
  1  5  1  0  0  0  0
  1  6  2  0  0  0  0
  2  5  2  0  0  0  0
  2 11  1  0  0  0  0
  2  4  1  0  0  0  0
  6 10  1  0  0  0  0
  7  8  2  0  0  0  0
  7 12  1  0  0  0  0
  8  9  1  0  0  0  0
  9 10  2  0  0  0  0
 10 11  1  0  0  0  0
 11 12  2  0  0  0  0
M  END
>  <CHROM.1>
-15.50720098,29.52733762,-4.17885019,-0.62641986,0.23721509,-3.04337876

>  <Name>
ligand

>  <RI>
0

>  <Rbt.Current_Directory>
/home/itssahil/PROJECTS/Mol_Feturizer/Test_systems_manuscript/rnas/4lx5

>  <Rbt.Executable>
rbdock ($Id: //depot/dev/client3/rdock/2013.1/src/exe/rbdock.cxx#4 $)

>  <Rbt.Library>
libRbt.so (2013.1, Build901 2013/11/27)

>  <Rbt.Parameter_File>
/export/apps/rDock/src/rDock_2013.1_src/data/scripts/dock_solv.prm

>  <Rbt.Receptor>
prm/blind_docking_80.prm

>  <SCORE>
-8.10485

>  <SCORE.INTER>
-8.10485

>  <SCORE.INTER.CONST>
1

>  <SCORE.INTER.POLAR>
0

>  <SCORE.INTER.ROT>
0

>  <SCORE.INTER.SOLV>
5.23371

>  <SCORE.INTER.VDW>
-10.7478

>  <SCORE.INTER.norm>
-0.675404

>  <SCORE.INTRA>
0

>  <SCORE.INTRA.DIHEDRAL>
0

>  <SCORE.INTRA.DIHEDRAL.0>
0

>  <SCORE.INTRA.POLAR>
0

>  <SCORE.INTRA.POLAR.0>
0

>  <SCORE.INTRA.REPUL>
0

>  <SCORE.INTRA.REPUL.0>
0

>  <SCORE.INTRA.SOLV>
0

>  <SCORE.INTRA.SOLV.lig_0>
-48.1583

>  <SCORE.INTRA.VDW>
0

>  <SCORE.INTRA.VDW.0>
0

>  <SCORE.INTRA.norm>
0

>  <SCORE.RESTR>
0

>  <SCORE.RESTR.CAVITY>
0

>  <SCORE.RESTR.norm>
0

>  <SCORE.SYSTEM>
0

>  <SCORE.SYSTEM.CONST>
0

>  <SCORE.SYSTEM.DIHEDRAL>
0

>  <SCORE.SYSTEM.SOLV>
0

>  <SCORE.SYSTEM.norm>
0

>  <SCORE.heavy>
12

>  <SCORE.norm>
-0.675404

>  <RMSD>
26.150

$$$$
ligand
 OpenBabel02271912143D
libRbt.so/2013.1/901 2013/11/27
 12 13  0  0  0  0  0  0  0  0999 V2000
  -13.6017   30.1780   -3.6563 C   0  0  0  0  0  0  0  0  0  0  0  0
  -15.7388   31.0015   -4.0917 C   0  0  0  0  0  0  0  0  0  0  0  0
  -12.3394   30.4112   -3.3082 N   0  0  0  0  0  0  0  0  0  0  0  0
  -16.6185   32.0001   -4.2253 N   0  0  0  0  0  0  0  0  0  0  0  0
  -14.4572   31.2177   -3.7670 N   0  0  0  0  0  0  0  0  0  0  0  0
  -14.0140   28.9081   -3.8661 N   0  0  0  0  0  0  0  0  0  0  0  0
  -17.9439   28.1501   -4.9131 N   0  0  0  0  0  0  0  0  0  0  0  0
  -17.0279   27.0948   -4.7833 C   0  0  0  0  0  0  0  0  0  0  0  0
  -15.6839   27.3641   -4.4342 N   0  0  0  0  0  0  0  0  0  0  0  0
  -15.2988   28.6385   -4.2076 C   0  0  0  0  0  0  0  0  0  0  0  0
  -16.2021   29.7002   -4.3216 C   0  0  0  0  0  0  0  0  0  0  0  0
  -17.5316   29.4761   -4.6744 C   0  0  0  0  0  0  0  0  0  0  0  0
  1  3  1  0  0  0  0
  1  5  1  0  0  0  0
  1  6  2  0  0  0  0
  2  5  2  0  0  0  0
  2 11  1  0  0  0  0
  2  4  1  0  0  0  0
  6 10  1  0  0  0  0
  7  8  2  0  0  0  0
  7 12  1  0  0  0  0
  8  9  1  0  0  0  0
  9 10  2  0  0  0  0
 10 11  1  0  0  0  0
 11 12  2  0  0  0  0
M  END
>  <CHROM.1>
-15.51036776,29.52424308,-4.17958958,-0.62815845,0.24061661,-3.04747580

>  <Name>
ligand

>  <RI>
0

>  <Rbt.Current_Directory>
/home/itssahil/PROJECTS/Mol_Feturizer/Test_systems_manuscript/rnas/4lx5

>  <Rbt.Executable>
rbdock ($Id: //depot/dev/client3/rdock/2013.1/src/exe/rbdock.cxx#4 $)

>  <Rbt.Library>
libRbt.so (2013.1, Build901 2013/11/27)

>  <Rbt.Parameter_File>
/export/apps/rDock/src/rDock_2013.1_src/data/scripts/dock_solv.prm

>  <Rbt.Receptor>
prm/blind_docking_100.prm

>  <SCORE>
-8.09736

>  <SCORE.INTER>
-8.09736

>  <SCORE.INTER.CONST>
1

>  <SCORE.INTER.POLAR>
0

>  <SCORE.INTER.ROT>
0

>  <SCORE.INTER.SOLV>
5.24759

>  <SCORE.INTER.VDW>
-10.7474

>  <SCORE.INTER.norm>
-0.67478

>  <SCORE.INTRA>
0

>  <SCORE.INTRA.DIHEDRAL>
0

>  <SCORE.INTRA.DIHEDRAL.0>
0

>  <SCORE.INTRA.POLAR>
0

>  <SCORE.INTRA.POLAR.0>
0

>  <SCORE.INTRA.REPUL>
0

>  <SCORE.INTRA.REPUL.0>
0

>  <SCORE.INTRA.SOLV>
0

>  <SCORE.INTRA.SOLV.lig_0>
-48.1583

>  <SCORE.INTRA.VDW>
0

>  <SCORE.INTRA.VDW.0>
0

>  <SCORE.INTRA.norm>
0

>  <SCORE.RESTR>
0

>  <SCORE.RESTR.CAVITY>
0

>  <SCORE.RESTR.norm>
0

>  <SCORE.SYSTEM>
0

>  <SCORE.SYSTEM.CONST>
0

>  <SCORE.SYSTEM.DIHEDRAL>
0

>  <SCORE.SYSTEM.SOLV>
0

>  <SCORE.SYSTEM.norm>
0

>  <SCORE.heavy>
12

>  <SCORE.norm>
-0.67478

>  <RMSD>
26.151

$$$$
ligand
 OpenBabel02271912143D
libRbt.so/2013.1/901 2013/11/27
 12 13  0  0  0  0  0  0  0  0999 V2000
  -13.6052   30.1978   -3.6440 C   0  0  0  0  0  0  0  0  0  0  0  0
  -15.7426   31.0127   -4.0945 C   0  0  0  0  0  0  0  0  0  0  0  0
  -12.3450   30.4369   -3.2925 N   0  0  0  0  0  0  0  0  0  0  0  0
  -16.6242   32.0080   -4.2392 N   0  0  0  0  0  0  0  0  0  0  0  0
  -14.4629   31.2346   -3.7661 N   0  0  0  0  0  0  0  0  0  0  0  0
  -14.0135   28.9254   -3.8461 N   0  0  0  0  0  0  0  0  0  0  0  0
  -17.9370   28.1497   -4.9039 N   0  0  0  0  0  0  0  0  0  0  0  0
  -17.0189   27.0977   -4.7624 C   0  0  0  0  0  0  0  0  0  0  0  0
  -15.6771   27.3729   -4.4097 N   0  0  0  0  0  0  0  0  0  0  0  0
  -15.2961   28.6500   -4.1910 C   0  0  0  0  0  0  0  0  0  0  0  0
  -16.2016   29.7085   -4.3167 C   0  0  0  0  0  0  0  0  0  0  0  0
  -17.5290   29.4784   -4.6734 C   0  0  0  0  0  0  0  0  0  0  0  0
  1  3  1  0  0  0  0
  1  5  1  0  0  0  0
  1  6  2  0  0  0  0
  2  5  2  0  0  0  0
  2 11  1  0  0  0  0
  2  4  1  0  0  0  0
  6 10  1  0  0  0  0
  7  8  2  0  0  0  0
  7 12  1  0  0  0  0
  8  9  1  0  0  0  0
  9 10  2  0  0  0  0
 10 11  1  0  0  0  0
 11 12  2  0  0  0  0
M  END
>  <CHROM.1>
-15.51005031,29.53539452,-4.17045650,-0.63113146,0.24455365,-3.05420275

>  <Name>
ligand

>  <RI>
0

>  <Rbt.Current_Directory>
/home/itssahil/PROJECTS/Mol_Feturizer/Test_systems_manuscript/rnas/4lx5

>  <Rbt.Executable>
rbdock ($Id: //depot/dev/client3/rdock/2013.1/src/exe/rbdock.cxx#4 $)

>  <Rbt.Library>
libRbt.so (2013.1, Build901 2013/11/27)

>  <Rbt.Parameter_File>
/export/apps/rDock/src/rDock_2013.1_src/data/scripts/dock_solv.prm

>  <Rbt.Receptor>
prm/blind_docking_40.prm

>  <SCORE>
-8.11214

>  <SCORE.INTER>
-8.11214

>  <SCORE.INTER.CONST>
1

>  <SCORE.INTER.POLAR>
0

>  <SCORE.INTER.ROT>
0

>  <SCORE.INTER.SOLV>
5.27768

>  <SCORE.INTER.VDW>
-10.7673

>  <SCORE.INTER.norm>
-0.676011

>  <SCORE.INTRA>
0

>  <SCORE.INTRA.DIHEDRAL>
0

>  <SCORE.INTRA.DIHEDRAL.0>
0

>  <SCORE.INTRA.POLAR>
0

>  <SCORE.INTRA.POLAR.0>
0

>  <SCORE.INTRA.REPUL>
0

>  <SCORE.INTRA.REPUL.0>
0

>  <SCORE.INTRA.SOLV>
0

>  <SCORE.INTRA.SOLV.lig_0>
-48.1583

>  <SCORE.INTRA.VDW>
0

>  <SCORE.INTRA.VDW.0>
0

>  <SCORE.INTRA.norm>
0

>  <SCORE.RESTR>
0

>  <SCORE.RESTR.CAVITY>
0

>  <SCORE.RESTR.norm>
0

>  <SCORE.SYSTEM>
0

>  <SCORE.SYSTEM.CONST>
0

>  <SCORE.SYSTEM.DIHEDRAL>
0

>  <SCORE.SYSTEM.SOLV>
0

>  <SCORE.SYSTEM.norm>
0

>  <SCORE.heavy>
12

>  <SCORE.norm>
-0.676011

>  <RMSD>
26.153

$$$$
ligand
 OpenBabel02271912143D
libRbt.so/2013.1/901 2013/11/27
 12 13  0  0  0  0  0  0  0  0999 V2000
  -16.5556   31.8171   -3.5819 C   0  0  0  0  0  0  0  0  0  0  0  0
  -14.7622   30.3936   -4.0205 C   0  0  0  0  0  0  0  0  0  0  0  0
  -16.9993   33.0413   -3.3111 N   0  0  0  0  0  0  0  0  0  0  0  0
  -13.4555   30.1425   -4.1567 N   0  0  0  0  0  0  0  0  0  0  0  0
  -15.2274   31.6141   -3.7227 N   0  0  0  0  0  0  0  0  0  0  0  0
  -17.4379   30.8052   -3.7384 N   0  0  0  0  0  0  0  0  0  0  0  0
  -16.0882   26.9948   -4.6181 N   0  0  0  0  0  0  0  0  0  0  0  0
  -17.4612   27.2448   -4.4700 C   0  0  0  0  0  0  0  0  0  0  0  0
  -17.9131   28.5487   -4.1598 N   0  0  0  0  0  0  0  0  0  0  0  0
  -17.0156   29.5495   -4.0295 C   0  0  0  0  0  0  0  0  0  0  0  0
  -15.6450   29.3192   -4.1854 C   0  0  0  0  0  0  0  0  0  0  0  0
  -15.1604   28.0461   -4.4800 C   0  0  0  0  0  0  0  0  0  0  0  0
  1  3  1  0  0  0  0
  1  5  1  0  0  0  0
  1  6  2  0  0  0  0
  2  5  2  0  0  0  0
  2 11  1  0  0  0  0
  2  4  1  0  0  0  0
  6 10  1  0  0  0  0
  7  8  2  0  0  0  0
  7 12  1  0  0  0  0
  8  9  1  0  0  0  0
  9 10  2  0  0  0  0
 10 11  1  0  0  0  0
 11 12  2  0  0  0  0
M  END
>  <CHROM.1>
-16.14677272,29.82361811,-4.03273452,1.48339620,0.07125773,0.20395958

>  <Name>
ligand

>  <RI>
0

>  <Rbt.Current_Directory>
/home/itssahil/PROJECTS/Mol_Feturizer/Test_systems_manuscript/rnas/4lx5

>  <Rbt.Executable>
rbdock ($Id: //depot/dev/client3/rdock/2013.1/src/exe/rbdock.cxx#4 $)

>  <Rbt.Library>
libRbt.so (2013.1, Build901 2013/11/27)

>  <Rbt.Parameter_File>
/export/apps/rDock/src/rDock_2013.1_src/data/scripts/dock_solv.prm

>  <Rbt.Receptor>
prm/blind_docking_60.prm

>  <SCORE>
-10.1684

>  <SCORE.INTER>
-10.1684

>  <SCORE.INTER.CONST>
1

>  <SCORE.INTER.POLAR>
0

>  <SCORE.INTER.ROT>
0

>  <SCORE.INTER.SOLV>
6.67704

>  <SCORE.INTER.VDW>
-12.6046

>  <SCORE.INTER.norm>
-0.847365

>  <SCORE.INTRA>
0

>  <SCORE.INTRA.DIHEDRAL>
0

>  <SCORE.INTRA.DIHEDRAL.0>
0

>  <SCORE.INTRA.POLAR>
0

>  <SCORE.INTRA.POLAR.0>
0

>  <SCORE.INTRA.REPUL>
0

>  <SCORE.INTRA.REPUL.0>
0

>  <SCORE.INTRA.SOLV>
0

>  <SCORE.INTRA.SOLV.lig_0>
-48.1583

>  <SCORE.INTRA.VDW>
0

>  <SCORE.INTRA.VDW.0>
0

>  <SCORE.INTRA.norm>
0

>  <SCORE.RESTR>
0

>  <SCORE.RESTR.CAVITY>
0

>  <SCORE.RESTR.norm>
0

>  <SCORE.SYSTEM>
0

>  <SCORE.SYSTEM.CONST>
0

>  <SCORE.SYSTEM.DIHEDRAL>
0

>  <SCORE.SYSTEM.SOLV>
0

>  <SCORE.SYSTEM.norm>
0

>  <SCORE.heavy>
12

>  <SCORE.norm>
-0.847365

>  <RMSD>
26.775

$$$$
ligand
 OpenBabel02271912143D
libRbt.so/2013.1/901 2013/11/27
 12 13  0  0  0  0  0  0  0  0999 V2000
  -16.6383   31.7642   -3.6308 C   0  0  0  0  0  0  0  0  0  0  0  0
  -14.8053   30.3822   -4.0370 C   0  0  0  0  0  0  0  0  0  0  0  0
  -17.1144   32.9776   -3.3665 N   0  0  0  0  0  0  0  0  0  0  0  0
  -13.4909   30.1607   -4.1482 N   0  0  0  0  0  0  0  0  0  0  0  0
  -15.3034   31.5913   -3.7461 N   0  0  0  0  0  0  0  0  0  0  0  0
  -17.4945   30.7332   -3.8063 N   0  0  0  0  0  0  0  0  0  0  0  0
  -16.0430   26.9559   -4.6665 N   0  0  0  0  0  0  0  0  0  0  0  0
  -17.4238   27.1748   -4.5446 C   0  0  0  0  0  0  0  0  0  0  0  0
  -17.9108   28.4676   -4.2409 N   0  0  0  0  0  0  0  0  0  0  0  0
  -17.0386   29.4879   -4.0914 C   0  0  0  0  0  0  0  0  0  0  0  0
  -15.6604   29.2887   -4.2210 C   0  0  0  0  0  0  0  0  0  0  0  0
  -15.1418   28.0274   -4.5085 C   0  0  0  0  0  0  0  0  0  0  0  0
  1  3  1  0  0  0  0
  1  5  1  0  0  0  0
  1  6  2  0  0  0  0
  2  5  2  0  0  0  0
  2 11  1  0  0  0  0
  2  4  1  0  0  0  0
  6 10  1  0  0  0  0
  7  8  2  0  0  0  0
  7 12  1  0  0  0  0
  8  9  1  0  0  0  0
  9 10  2  0  0  0  0
 10 11  1  0  0  0  0
 11 12  2  0  0  0  0
M  END
>  <CHROM.1>
-16.17624055,29.78140077,-4.07721909,1.50930698,0.05676263,0.20433205

>  <Name>
ligand

>  <RI>
0

>  <Rbt.Current_Directory>
/home/itssahil/PROJECTS/Mol_Feturizer/Test_systems_manuscript/rnas/4lx5

>  <Rbt.Executable>
rbdock ($Id: //depot/dev/client3/rdock/2013.1/src/exe/rbdock.cxx#4 $)

>  <Rbt.Library>
libRbt.so (2013.1, Build901 2013/11/27)

>  <Rbt.Parameter_File>
/export/apps/rDock/src/rDock_2013.1_src/data/scripts/dock_solv.prm

>  <Rbt.Receptor>
prm/blind_docking_100.prm

>  <SCORE>
-10.1439

>  <SCORE.INTER>
-10.1439

>  <SCORE.INTER.CONST>
1

>  <SCORE.INTER.POLAR>
0

>  <SCORE.INTER.ROT>
0

>  <SCORE.INTER.SOLV>
6.85038

>  <SCORE.INTER.VDW>
-12.646

>  <SCORE.INTER.norm>
-0.845322

>  <SCORE.INTRA>
0

>  <SCORE.INTRA.DIHEDRAL>
0

>  <SCORE.INTRA.DIHEDRAL.0>
0

>  <SCORE.INTRA.POLAR>
0

>  <SCORE.INTRA.POLAR.0>
0

>  <SCORE.INTRA.REPUL>
0

>  <SCORE.INTRA.REPUL.0>
0

>  <SCORE.INTRA.SOLV>
0

>  <SCORE.INTRA.SOLV.lig_0>
-48.1583

>  <SCORE.INTRA.VDW>
0

>  <SCORE.INTRA.VDW.0>
0

>  <SCORE.INTRA.norm>
0

>  <SCORE.RESTR>
0

>  <SCORE.RESTR.CAVITY>
0

>  <SCORE.RESTR.norm>
0

>  <SCORE.SYSTEM>
0

>  <SCORE.SYSTEM.CONST>
0

>  <SCORE.SYSTEM.DIHEDRAL>
0

>  <SCORE.SYSTEM.SOLV>
0

>  <SCORE.SYSTEM.norm>
0

>  <SCORE.heavy>
12

>  <SCORE.norm>
-0.845322

>  <RMSD>
26.793

$$$$
ligand
 OpenBabel02271912143D
libRbt.so/2013.1/901 2013/11/27
 12 13  0  0  0  0  0  0  0  0999 V2000
  -16.6715   31.7835   -3.6224 C   0  0  0  0  0  0  0  0  0  0  0  0
  -14.8159   30.4240   -4.0013 C   0  0  0  0  0  0  0  0  0  0  0  0
  -17.1664   32.9911   -3.3666 N   0  0  0  0  0  0  0  0  0  0  0  0
  -13.4974   30.2189   -4.0942 N   0  0  0  0  0  0  0  0  0  0  0  0
  -15.3331   31.6272   -3.7192 N   0  0  0  0  0  0  0  0  0  0  0  0
  -17.5122   30.7415   -3.8078 N   0  0  0  0  0  0  0  0  0  0  0  0
  -16.0018   26.9815   -4.6417 N   0  0  0  0  0  0  0  0  0  0  0  0
  -17.3868   27.1832   -4.5390 C   0  0  0  0  0  0  0  0  0  0  0  0
  -17.8940   28.4702   -4.2442 N   0  0  0  0  0  0  0  0  0  0  0  0
  -17.0369   29.5016   -4.0846 C   0  0  0  0  0  0  0  0  0  0  0  0
  -15.6546   29.3195   -4.1950 C   0  0  0  0  0  0  0  0  0  0  0  0
  -15.1164   28.0645   -4.4733 C   0  0  0  0  0  0  0  0  0  0  0  0
  1  3  1  0  0  0  0
  1  5  1  0  0  0  0
  1  6  2  0  0  0  0
  2  5  2  0  0  0  0
  2 11  1  0  0  0  0
  2  4  1  0  0  0  0
  6 10  1  0  0  0  0
  7  8  2  0  0  0  0
  7 12  1  0  0  0  0
  8  9  1  0  0  0  0
  9 10  2  0  0  0  0
 10 11  1  0  0  0  0
 11 12  2  0  0  0  0
M  END
>  <CHROM.1>
-16.17853218,29.80594769,-4.05910990,1.52438621,0.04596039,0.20195526

>  <Name>
ligand

>  <RI>
0

>  <Rbt.Current_Directory>
/home/itssahil/PROJECTS/Mol_Feturizer/Test_systems_manuscript/rnas/4lx5

>  <Rbt.Executable>
rbdock ($Id: //depot/dev/client3/rdock/2013.1/src/exe/rbdock.cxx#4 $)

>  <Rbt.Library>
libRbt.so (2013.1, Build901 2013/11/27)

>  <Rbt.Parameter_File>
/export/apps/rDock/src/rDock_2013.1_src/data/scripts/dock_solv.prm

>  <Rbt.Receptor>
prm/blind_docking_80.prm

>  <SCORE>
-10.213

>  <SCORE.INTER>
-10.213

>  <SCORE.INTER.CONST>
1

>  <SCORE.INTER.POLAR>
0

>  <SCORE.INTER.ROT>
0

>  <SCORE.INTER.SOLV>
6.8688

>  <SCORE.INTER.VDW>
-12.6982

>  <SCORE.INTER.norm>
-0.851081

>  <SCORE.INTRA>
0

>  <SCORE.INTRA.DIHEDRAL>
0

>  <SCORE.INTRA.DIHEDRAL.0>
0

>  <SCORE.INTRA.POLAR>
0

>  <SCORE.INTRA.POLAR.0>
0

>  <SCORE.INTRA.REPUL>
0

>  <SCORE.INTRA.REPUL.0>
0

>  <SCORE.INTRA.SOLV>
0

>  <SCORE.INTRA.SOLV.lig_0>
-48.1583

>  <SCORE.INTRA.VDW>
0

>  <SCORE.INTRA.VDW.0>
0

>  <SCORE.INTRA.norm>
0

>  <SCORE.RESTR>
0

>  <SCORE.RESTR.CAVITY>
0

>  <SCORE.RESTR.norm>
0

>  <SCORE.SYSTEM>
0

>  <SCORE.SYSTEM.CONST>
0

>  <SCORE.SYSTEM.DIHEDRAL>
0

>  <SCORE.SYSTEM.SOLV>
0

>  <SCORE.SYSTEM.norm>
0

>  <SCORE.heavy>
12

>  <SCORE.norm>
-0.851081

>  <RMSD>
26.802

$$$$
ligand
 OpenBabel02271912143D
libRbt.so/2013.1/901 2013/11/27
 12 13  0  0  0  0  0  0  0  0999 V2000
  -16.6722   31.7929   -3.6245 C   0  0  0  0  0  0  0  0  0  0  0  0
  -14.8168   30.4317   -3.9980 C   0  0  0  0  0  0  0  0  0  0  0  0
  -17.1670   33.0020   -3.3752 N   0  0  0  0  0  0  0  0  0  0  0  0
  -13.4985   30.2264   -4.0918 N   0  0  0  0  0  0  0  0  0  0  0  0
  -15.3339   31.6364   -3.7224 N   0  0  0  0  0  0  0  0  0  0  0  0
  -17.5129   30.7497   -3.8023 N   0  0  0  0  0  0  0  0  0  0  0  0
  -16.0028   26.9851   -4.6159 N   0  0  0  0  0  0  0  0  0  0  0  0
  -17.3877   27.1870   -4.5123 C   0  0  0  0  0  0  0  0  0  0  0  0
  -17.8948   28.4757   -4.2244 N   0  0  0  0  0  0  0  0  0  0  0  0
  -17.0377   29.5083   -4.0723 C   0  0  0  0  0  0  0  0  0  0  0  0
  -15.6556   29.3258   -4.1838 C   0  0  0  0  0  0  0  0  0  0  0  0
  -15.1174   28.0693   -4.4553 C   0  0  0  0  0  0  0  0  0  0  0  0
  1  3  1  0  0  0  0
  1  5  1  0  0  0  0
  1  6  2  0  0  0  0
  2  5  2  0  0  0  0
  2 11  1  0  0  0  0
  2  4  1  0  0  0  0
  6 10  1  0  0  0  0
  7  8  2  0  0  0  0
  7 12  1  0  0  0  0
  8  9  1  0  0  0  0
  9 10  2  0  0  0  0
 10 11  1  0  0  0  0
 11 12  2  0  0  0  0
M  END
>  <CHROM.1>
-16.17939990,29.81295019,-4.05003156,1.52433388,0.04753349,0.19593009

>  <Name>
ligand

>  <RI>
0

>  <Rbt.Current_Directory>
/home/itssahil/PROJECTS/Mol_Feturizer/Test_systems_manuscript/rnas/4lx5

>  <Rbt.Executable>
rbdock ($Id: //depot/dev/client3/rdock/2013.1/src/exe/rbdock.cxx#4 $)

>  <Rbt.Library>
libRbt.so (2013.1, Build901 2013/11/27)

>  <Rbt.Parameter_File>
/export/apps/rDock/src/rDock_2013.1_src/data/scripts/dock_solv.prm

>  <Rbt.Receptor>
prm/blind_docking_100.prm

>  <SCORE>
-10.2034

>  <SCORE.INTER>
-10.2034

>  <SCORE.INTER.CONST>
1

>  <SCORE.INTER.POLAR>
0

>  <SCORE.INTER.ROT>
0

>  <SCORE.INTER.SOLV>
6.88971

>  <SCORE.INTER.VDW>
-12.6988

>  <SCORE.INTER.norm>
-0.850281

>  <SCORE.INTRA>
0

>  <SCORE.INTRA.DIHEDRAL>
0

>  <SCORE.INTRA.DIHEDRAL.0>
0

>  <SCORE.INTRA.POLAR>
0

>  <SCORE.INTRA.POLAR.0>
0

>  <SCORE.INTRA.REPUL>
0

>  <SCORE.INTRA.REPUL.0>
0

>  <SCORE.INTRA.SOLV>
0

>  <SCORE.INTRA.SOLV.lig_0>
-48.1583

>  <SCORE.INTRA.VDW>
0

>  <SCORE.INTRA.VDW.0>
0

>  <SCORE.INTRA.norm>
0

>  <SCORE.RESTR>
0

>  <SCORE.RESTR.CAVITY>
0

>  <SCORE.RESTR.norm>
0

>  <SCORE.SYSTEM>
0

>  <SCORE.SYSTEM.CONST>
0

>  <SCORE.SYSTEM.DIHEDRAL>
0

>  <SCORE.SYSTEM.SOLV>
0

>  <SCORE.SYSTEM.norm>
0

>  <SCORE.heavy>
12

>  <SCORE.norm>
-0.850281

>  <RMSD>
26.803

$$$$
ligand
 OpenBabel02271912143D
libRbt.so/2013.1/901 2013/11/27
 12 13  0  0  0  0  0  0  0  0999 V2000
  -16.6578   31.7901   -3.6064 C   0  0  0  0  0  0  0  0  0  0  0  0
  -14.8149   30.4175   -3.9999 C   0  0  0  0  0  0  0  0  0  0  0  0
  -17.1416   33.0004   -3.3418 N   0  0  0  0  0  0  0  0  0  0  0  0
  -13.4986   30.2020   -4.0987 N   0  0  0  0  0  0  0  0  0  0  0  0
  -15.3210   31.6233   -3.7089 N   0  0  0  0  0  0  0  0  0  0  0  0
  -17.5078   30.7564   -3.7948 N   0  0  0  0  0  0  0  0  0  0  0  0
  -16.0318   26.9888   -4.6560 N   0  0  0  0  0  0  0  0  0  0  0  0
  -17.4147   27.2014   -4.5472 C   0  0  0  0  0  0  0  0  0  0  0  0
  -17.9101   28.4909   -4.2430 N   0  0  0  0  0  0  0  0  0  0  0  0
  -17.0439   29.5142   -4.0805 C   0  0  0  0  0  0  0  0  0  0  0  0
  -15.6635   29.3212   -4.1970 C   0  0  0  0  0  0  0  0  0  0  0  0
  -15.1368   28.0634   -4.4845 C   0  0  0  0  0  0  0  0  0  0  0  0
  1  3  1  0  0  0  0
  1  5  1  0  0  0  0
  1  6  2  0  0  0  0
  2  5  2  0  0  0  0
  2 11  1  0  0  0  0
  2  4  1  0  0  0  0
  6 10  1  0  0  0  0
  7  8  2  0  0  0  0
  7 12  1  0  0  0  0
  8  9  1  0  0  0  0
  9 10  2  0  0  0  0
 10 11  1  0  0  0  0
 11 12  2  0  0  0  0
M  END
>  <CHROM.1>
-16.18289263,29.81118736,-4.05637735,1.51547696,0.04776478,0.20819896

>  <Name>
ligand

>  <RI>
0

>  <Rbt.Current_Directory>
/home/itssahil/PROJECTS/Mol_Feturizer/Test_systems_manuscript/rnas/4lx5

>  <Rbt.Executable>
rbdock ($Id: //depot/dev/client3/rdock/2013.1/src/exe/rbdock.cxx#4 $)

>  <Rbt.Library>
libRbt.so (2013.1, Build901 2013/11/27)

>  <Rbt.Parameter_File>
/export/apps/rDock/src/rDock_2013.1_src/data/scripts/dock_solv.prm

>  <Rbt.Receptor>
prm/blind_docking_40.prm

>  <SCORE>
-10.1806

>  <SCORE.INTER>
-10.1806

>  <SCORE.INTER.CONST>
1

>  <SCORE.INTER.POLAR>
0

>  <SCORE.INTER.ROT>
0

>  <SCORE.INTER.SOLV>
6.80814

>  <SCORE.INTER.VDW>
-12.6564

>  <SCORE.INTER.norm>
-0.848381

>  <SCORE.INTRA>
0

>  <SCORE.INTRA.DIHEDRAL>
0

>  <SCORE.INTRA.DIHEDRAL.0>
0

>  <SCORE.INTRA.POLAR>
0

>  <SCORE.INTRA.POLAR.0>
0

>  <SCORE.INTRA.REPUL>
0

>  <SCORE.INTRA.REPUL.0>
0

>  <SCORE.INTRA.SOLV>
0

>  <SCORE.INTRA.SOLV.lig_0>
-48.1583

>  <SCORE.INTRA.VDW>
0

>  <SCORE.INTRA.VDW.0>
0

>  <SCORE.INTRA.norm>
0

>  <SCORE.RESTR>
0

>  <SCORE.RESTR.CAVITY>
0

>  <SCORE.RESTR.norm>
0

>  <SCORE.SYSTEM>
0

>  <SCORE.SYSTEM.CONST>
0

>  <SCORE.SYSTEM.DIHEDRAL>
0

>  <SCORE.SYSTEM.SOLV>
0

>  <SCORE.SYSTEM.norm>
0

>  <SCORE.heavy>
12

>  <SCORE.norm>
-0.848381

>  <RMSD>
26.808

$$$$
ligand
 OpenBabel02271912143D
libRbt.so/2013.1/901 2013/11/27
 12 13  0  0  0  0  0  0  0  0999 V2000
  -16.6727   31.7832   -3.6173 C   0  0  0  0  0  0  0  0  0  0  0  0
  -14.8198   30.4219   -4.0030 C   0  0  0  0  0  0  0  0  0  0  0  0
  -17.1653   32.9908   -3.3568 N   0  0  0  0  0  0  0  0  0  0  0  0
  -13.5019   30.2149   -4.0982 N   0  0  0  0  0  0  0  0  0  0  0  0
  -15.3346   31.6250   -3.7162 N   0  0  0  0  0  0  0  0  0  0  0  0
  -17.5154   30.7434   -3.8053 N   0  0  0  0  0  0  0  0  0  0  0  0
  -16.0123   26.9836   -4.6539 N   0  0  0  0  0  0  0  0  0  0  0  0
  -17.3969   27.1873   -4.5489 C   0  0  0  0  0  0  0  0  0  0  0  0
  -17.9016   28.4742   -4.2491 N   0  0  0  0  0  0  0  0  0  0  0  0
  -17.0425   29.5036   -4.0869 C   0  0  0  0  0  0  0  0  0  0  0  0
  -15.6607   29.3195   -4.1996 C   0  0  0  0  0  0  0  0  0  0  0  0
  -15.1249   28.0645   -4.4828 C   0  0  0  0  0  0  0  0  0  0  0  0
  1  3  1  0  0  0  0
  1  5  1  0  0  0  0
  1  6  2  0  0  0  0
  2  5  2  0  0  0  0
  2 11  1  0  0  0  0
  2  4  1  0  0  0  0
  6 10  1  0  0  0  0
  7  8  2  0  0  0  0
  7 12  1  0  0  0  0
  8  9  1  0  0  0  0
  9 10  2  0  0  0  0
 10 11  1  0  0  0  0
 11 12  2  0  0  0  0
M  END
>  <CHROM.1>
-16.18360247,29.80638712,-4.06138371,1.52248821,0.04675925,0.20548440

>  <Name>
ligand

>  <RI>
0

>  <Rbt.Current_Directory>
/home/itssahil/PROJECTS/Mol_Feturizer/Test_systems_manuscript/rnas/4lx5

>  <Rbt.Executable>
rbdock ($Id: //depot/dev/client3/rdock/2013.1/src/exe/rbdock.cxx#4 $)

>  <Rbt.Library>
libRbt.so (2013.1, Build901 2013/11/27)

>  <Rbt.Parameter_File>
/export/apps/rDock/src/rDock_2013.1_src/data/scripts/dock_solv.prm

>  <Rbt.Receptor>
prm/blind_docking_60.prm

>  <SCORE>
-10.1854

>  <SCORE.INTER>
-10.1854

>  <SCORE.INTER.CONST>
1

>  <SCORE.INTER.POLAR>
0

>  <SCORE.INTER.ROT>
0

>  <SCORE.INTER.SOLV>
6.86629

>  <SCORE.INTER.VDW>
-12.679

>  <SCORE.INTER.norm>
-0.84878

>  <SCORE.INTRA>
0

>  <SCORE.INTRA.DIHEDRAL>
0

>  <SCORE.INTRA.DIHEDRAL.0>
0

>  <SCORE.INTRA.POLAR>
0

>  <SCORE.INTRA.POLAR.0>
0

>  <SCORE.INTRA.REPUL>
0

>  <SCORE.INTRA.REPUL.0>
0

>  <SCORE.INTRA.SOLV>
0

>  <SCORE.INTRA.SOLV.lig_0>
-48.1583

>  <SCORE.INTRA.VDW>
0

>  <SCORE.INTRA.VDW.0>
0

>  <SCORE.INTRA.norm>
0

>  <SCORE.RESTR>
0

>  <SCORE.RESTR.CAVITY>
0

>  <SCORE.RESTR.norm>
0

>  <SCORE.SYSTEM>
0

>  <SCORE.SYSTEM.CONST>
0

>  <SCORE.SYSTEM.DIHEDRAL>
0

>  <SCORE.SYSTEM.SOLV>
0

>  <SCORE.SYSTEM.norm>
0

>  <SCORE.heavy>
12

>  <SCORE.norm>
-0.84878

>  <RMSD>
26.808

$$$$
ligand
 OpenBabel02271912143D
libRbt.so/2013.1/901 2013/11/27
 12 13  0  0  0  0  0  0  0  0999 V2000
  -16.6780   31.7852   -3.6314 C   0  0  0  0  0  0  0  0  0  0  0  0
  -14.8233   30.4247   -4.0112 C   0  0  0  0  0  0  0  0  0  0  0  0
  -17.1722   32.9933   -3.3764 N   0  0  0  0  0  0  0  0  0  0  0  0
  -13.5051   30.2191   -4.1058 N   0  0  0  0  0  0  0  0  0  0  0  0
  -15.3398   31.6284   -3.7299 N   0  0  0  0  0  0  0  0  0  0  0  0
  -17.5193   30.7433   -3.8142 N   0  0  0  0  0  0  0  0  0  0  0  0
  -16.0111   26.9817   -4.6456 N   0  0  0  0  0  0  0  0  0  0  0  0
  -17.3960   27.1839   -4.5412 C   0  0  0  0  0  0  0  0  0  0  0  0
  -17.9024   28.4715   -4.2472 N   0  0  0  0  0  0  0  0  0  0  0  0
  -17.0447   29.5029   -4.0901 C   0  0  0  0  0  0  0  0  0  0  0  0
  -15.6627   29.3202   -4.2024 C   0  0  0  0  0  0  0  0  0  0  0  0
  -15.1252   28.0647   -4.4798 C   0  0  0  0  0  0  0  0  0  0  0  0
  1  3  1  0  0  0  0
  1  5  1  0  0  0  0
  1  6  2  0  0  0  0
  2  5  2  0  0  0  0
  2 11  1  0  0  0  0
  2  4  1  0  0  0  0
  6 10  1  0  0  0  0
  7  8  2  0  0  0  0
  7 12  1  0  0  0  0
  8  9  1  0  0  0  0
  9 10  2  0  0  0  0
 10 11  1  0  0  0  0
 11 12  2  0  0  0  0
M  END
>  <CHROM.1>
-16.18625114,29.80698739,-4.06629246,1.52381692,0.04731588,0.20072177

>  <Name>
ligand

>  <RI>
0

>  <Rbt.Current_Directory>
/home/itssahil/PROJECTS/Mol_Feturizer/Test_systems_manuscript/rnas/4lx5

>  <Rbt.Executable>
rbdock ($Id: //depot/dev/client3/rdock/2013.1/src/exe/rbdock.cxx#4 $)

>  <Rbt.Library>
libRbt.so (2013.1, Build901 2013/11/27)

>  <Rbt.Parameter_File>
/export/apps/rDock/src/rDock_2013.1_src/data/scripts/dock_solv.prm

>  <Rbt.Receptor>
prm/blind_docking_100.prm

>  <SCORE>
-10.2076

>  <SCORE.INTER>
-10.2076

>  <SCORE.INTER.CONST>
1

>  <SCORE.INTER.POLAR>
0

>  <SCORE.INTER.ROT>
0

>  <SCORE.INTER.SOLV>
6.89656

>  <SCORE.INTER.VDW>
-12.7039

>  <SCORE.INTER.norm>
-0.850635

>  <SCORE.INTRA>
0

>  <SCORE.INTRA.DIHEDRAL>
0

>  <SCORE.INTRA.DIHEDRAL.0>
0

>  <SCORE.INTRA.POLAR>
0

>  <SCORE.INTRA.POLAR.0>
0

>  <SCORE.INTRA.REPUL>
0

>  <SCORE.INTRA.REPUL.0>
0

>  <SCORE.INTRA.SOLV>
0

>  <SCORE.INTRA.SOLV.lig_0>
-48.1583

>  <SCORE.INTRA.VDW>
0

>  <SCORE.INTRA.VDW.0>
0

>  <SCORE.INTRA.norm>
0

>  <SCORE.RESTR>
0

>  <SCORE.RESTR.CAVITY>
0

>  <SCORE.RESTR.norm>
0

>  <SCORE.SYSTEM>
0

>  <SCORE.SYSTEM.CONST>
0

>  <SCORE.SYSTEM.DIHEDRAL>
0

>  <SCORE.SYSTEM.SOLV>
0

>  <SCORE.SYSTEM.norm>
0

>  <SCORE.heavy>
12

>  <SCORE.norm>
-0.850635

>  <RMSD>
26.811

$$$$
ligand
 OpenBabel02271912143D
libRbt.so/2013.1/901 2013/11/27
 12 13  0  0  0  0  0  0  0  0999 V2000
  -16.6769   31.7998   -3.6219 C   0  0  0  0  0  0  0  0  0  0  0  0
  -14.8227   30.4369   -3.9948 C   0  0  0  0  0  0  0  0  0  0  0  0
  -17.1707   33.0092   -3.3720 N   0  0  0  0  0  0  0  0  0  0  0  0
  -13.5044   30.2302   -4.0874 N   0  0  0  0  0  0  0  0  0  0  0  0
  -15.3387   31.6419   -3.7186 N   0  0  0  0  0  0  0  0  0  0  0  0
  -17.5186   30.7577   -3.8017 N   0  0  0  0  0  0  0  0  0  0  0  0
  -16.0118   26.9921   -4.6173 N   0  0  0  0  0  0  0  0  0  0  0  0
  -17.3966   27.1955   -4.5150 C   0  0  0  0  0  0  0  0  0  0  0  0
  -17.9026   28.4845   -4.2264 N   0  0  0  0  0  0  0  0  0  0  0  0
  -17.0445   29.5160   -4.0724 C   0  0  0  0  0  0  0  0  0  0  0  0
  -15.6624   29.3321   -4.1826 C   0  0  0  0  0  0  0  0  0  0  0  0
  -15.1254   28.0752   -4.4548 C   0  0  0  0  0  0  0  0  0  0  0  0
  1  3  1  0  0  0  0
  1  5  1  0  0  0  0
  1  6  2  0  0  0  0
  2  5  2  0  0  0  0
  2 11  1  0  0  0  0
  2  4  1  0  0  0  0
  6 10  1  0  0  0  0
  7  8  2  0  0  0  0
  7 12  1  0  0  0  0
  8  9  1  0  0  0  0
  9 10  2  0  0  0  0
 10 11  1  0  0  0  0
 11 12  2  0  0  0  0
M  END
>  <CHROM.1>
-16.18585228,29.81968045,-4.04890028,1.52345802,0.04626787,0.19694693

>  <Name>
ligand

>  <RI>
0

>  <Rbt.Current_Directory>
/home/itssahil/PROJECTS/Mol_Feturizer/Test_systems_manuscript/rnas/4lx5

>  <Rbt.Executable>
rbdock ($Id: //depot/dev/client3/rdock/2013.1/src/exe/rbdock.cxx#4 $)

>  <Rbt.Library>
libRbt.so (2013.1, Build901 2013/11/27)

>  <Rbt.Parameter_File>
/export/apps/rDock/src/rDock_2013.1_src/data/scripts/dock_solv.prm

>  <Rbt.Receptor>
prm/blind_docking_60.prm

>  <SCORE>
-10.2057

>  <SCORE.INTER>
-10.2057

>  <SCORE.INTER.CONST>
1

>  <SCORE.INTER.POLAR>
0

>  <SCORE.INTER.ROT>
0

>  <SCORE.INTER.SOLV>
6.88832

>  <SCORE.INTER.VDW>
-12.6999

>  <SCORE.INTER.norm>
-0.850474

>  <SCORE.INTRA>
0

>  <SCORE.INTRA.DIHEDRAL>
0

>  <SCORE.INTRA.DIHEDRAL.0>
0

>  <SCORE.INTRA.POLAR>
0

>  <SCORE.INTRA.POLAR.0>
0

>  <SCORE.INTRA.REPUL>
0

>  <SCORE.INTRA.REPUL.0>
0

>  <SCORE.INTRA.SOLV>
0

>  <SCORE.INTRA.SOLV.lig_0>
-48.1583

>  <SCORE.INTRA.VDW>
0

>  <SCORE.INTRA.VDW.0>
0

>  <SCORE.INTRA.norm>
0

>  <SCORE.RESTR>
0

>  <SCORE.RESTR.CAVITY>
0

>  <SCORE.RESTR.norm>
0

>  <SCORE.SYSTEM>
0

>  <SCORE.SYSTEM.CONST>
0

>  <SCORE.SYSTEM.DIHEDRAL>
0

>  <SCORE.SYSTEM.SOLV>
0

>  <SCORE.SYSTEM.norm>
0

>  <SCORE.heavy>
12

>  <SCORE.norm>
-0.850474

>  <RMSD>
26.811

$$$$
ligand
 OpenBabel02271912143D
libRbt.so/2013.1/901 2013/11/27
 12 13  0  0  0  0  0  0  0  0999 V2000
  -16.6791   31.7900   -3.6284 C   0  0  0  0  0  0  0  0  0  0  0  0
  -14.8247   30.4275   -4.0022 C   0  0  0  0  0  0  0  0  0  0  0  0
  -17.1727   32.9985   -3.3740 N   0  0  0  0  0  0  0  0  0  0  0  0
  -13.5063   30.2203   -4.0917 N   0  0  0  0  0  0  0  0  0  0  0  0
  -15.3407   31.6315   -3.7216 N   0  0  0  0  0  0  0  0  0  0  0  0
  -17.5210   30.7494   -3.8158 N   0  0  0  0  0  0  0  0  0  0  0  0
  -16.0144   26.9868   -4.6453 N   0  0  0  0  0  0  0  0  0  0  0  0
  -17.3994   27.1907   -4.5463 C   0  0  0  0  0  0  0  0  0  0  0  0
  -17.9053   28.4786   -4.2530 N   0  0  0  0  0  0  0  0  0  0  0  0
  -17.0470   29.5087   -4.0912 C   0  0  0  0  0  0  0  0  0  0  0  0
  -15.6647   29.3243   -4.1980 C   0  0  0  0  0  0  0  0  0  0  0  0
  -15.1277   28.0684   -4.4747 C   0  0  0  0  0  0  0  0  0  0  0  0
  1  3  1  0  0  0  0
  1  5  1  0  0  0  0
  1  6  2  0  0  0  0
  2  5  2  0  0  0  0
  2 11  1  0  0  0  0
  2  4  1  0  0  0  0
  6 10  1  0  0  0  0
  7  8  2  0  0  0  0
  7 12  1  0  0  0  0
  8  9  1  0  0  0  0
  9 10  2  0  0  0  0
 10 11  1  0  0  0  0
 11 12  2  0  0  0  0
M  END
>  <CHROM.1>
-16.18816642,29.81161051,-4.06354861,1.52334329,0.04307327,0.20187816

>  <Name>
ligand

>  <RI>
0

>  <Rbt.Current_Directory>
/home/itssahil/PROJECTS/Mol_Feturizer/Test_systems_manuscript/rnas/4lx5

>  <Rbt.Executable>
rbdock ($Id: //depot/dev/client3/rdock/2013.1/src/exe/rbdock.cxx#4 $)

>  <Rbt.Library>
libRbt.so (2013.1, Build901 2013/11/27)

>  <Rbt.Parameter_File>
/export/apps/rDock/src/rDock_2013.1_src/data/scripts/dock_solv.prm

>  <Rbt.Receptor>
prm/blind_docking_80.prm

>  <SCORE>
-10.2094

>  <SCORE.INTER>
-10.2094

>  <SCORE.INTER.CONST>
1

>  <SCORE.INTER.POLAR>
0

>  <SCORE.INTER.ROT>
0

>  <SCORE.INTER.SOLV>
6.86809

>  <SCORE.INTER.VDW>
-12.6957

>  <SCORE.INTER.norm>
-0.850787

>  <SCORE.INTRA>
0

>  <SCORE.INTRA.DIHEDRAL>
0

>  <SCORE.INTRA.DIHEDRAL.0>
0

>  <SCORE.INTRA.POLAR>
0

>  <SCORE.INTRA.POLAR.0>
0

>  <SCORE.INTRA.REPUL>
0

>  <SCORE.INTRA.REPUL.0>
0

>  <SCORE.INTRA.SOLV>
0

>  <SCORE.INTRA.SOLV.lig_0>
-48.1583

>  <SCORE.INTRA.VDW>
0

>  <SCORE.INTRA.VDW.0>
0

>  <SCORE.INTRA.norm>
0

>  <SCORE.RESTR>
0

>  <SCORE.RESTR.CAVITY>
0

>  <SCORE.RESTR.norm>
0

>  <SCORE.SYSTEM>
0

>  <SCORE.SYSTEM.CONST>
0

>  <SCORE.SYSTEM.DIHEDRAL>
0

>  <SCORE.SYSTEM.SOLV>
0

>  <SCORE.SYSTEM.norm>
0

>  <SCORE.heavy>
12

>  <SCORE.norm>
-0.850787

>  <RMSD>
26.814

$$$$
ligand
 OpenBabel02271912143D
libRbt.so/2013.1/901 2013/11/27
 12 13  0  0  0  0  0  0  0  0999 V2000
  -16.6819   31.7963   -3.6327 C   0  0  0  0  0  0  0  0  0  0  0  0
  -14.8295   30.4304   -4.0041 C   0  0  0  0  0  0  0  0  0  0  0  0
  -17.1737   33.0059   -3.3801 N   0  0  0  0  0  0  0  0  0  0  0  0
  -13.5114   30.2210   -4.0928 N   0  0  0  0  0  0  0  0  0  0  0  0
  -15.3437   31.6357   -3.7253 N   0  0  0  0  0  0  0  0  0  0  0  0
  -17.5253   30.7568   -3.8190 N   0  0  0  0  0  0  0  0  0  0  0  0
  -16.0244   26.9907   -4.6429 N   0  0  0  0  0  0  0  0  0  0  0  0
  -17.4091   27.1969   -4.5446 C   0  0  0  0  0  0  0  0  0  0  0  0
  -17.9130   28.4860   -4.2532 N   0  0  0  0  0  0  0  0  0  0  0  0
  -17.0531   29.5149   -4.0925 C   0  0  0  0  0  0  0  0  0  0  0  0
  -15.6711   29.3283   -4.1987 C   0  0  0  0  0  0  0  0  0  0  0  0
  -15.1361   28.0712   -4.4735 C   0  0  0  0  0  0  0  0  0  0  0  0
  1  3  1  0  0  0  0
  1  5  1  0  0  0  0
  1  6  2  0  0  0  0
  2  5  2  0  0  0  0
  2 11  1  0  0  0  0
  2  4  1  0  0  0  0
  6 10  1  0  0  0  0
  7  8  2  0  0  0  0
  7 12  1  0  0  0  0
  8  9  1  0  0  0  0
  9 10  2  0  0  0  0
 10 11  1  0  0  0  0
 11 12  2  0  0  0  0
M  END
>  <CHROM.1>
-16.19389906,29.81659890,-4.06500894,1.52187602,0.04245528,0.20058668

>  <Name>
ligand

>  <RI>
0

>  <Rbt.Current_Directory>
/home/itssahil/PROJECTS/Mol_Feturizer/Test_systems_manuscript/rnas/4lx5

>  <Rbt.Executable>
rbdock ($Id: //depot/dev/client3/rdock/2013.1/src/exe/rbdock.cxx#4 $)

>  <Rbt.Library>
libRbt.so (2013.1, Build901 2013/11/27)

>  <Rbt.Parameter_File>
/export/apps/rDock/src/rDock_2013.1_src/data/scripts/dock_solv.prm

>  <Rbt.Receptor>
prm/blind_docking_80.prm

>  <SCORE>
-10.2052

>  <SCORE.INTER>
-10.2052

>  <SCORE.INTER.CONST>
1

>  <SCORE.INTER.POLAR>
0

>  <SCORE.INTER.ROT>
0

>  <SCORE.INTER.SOLV>
6.86921

>  <SCORE.INTER.VDW>
-12.6932

>  <SCORE.INTER.norm>
-0.850435

>  <SCORE.INTRA>
0

>  <SCORE.INTRA.DIHEDRAL>
0

>  <SCORE.INTRA.DIHEDRAL.0>
0

>  <SCORE.INTRA.POLAR>
0

>  <SCORE.INTRA.POLAR.0>
0

>  <SCORE.INTRA.REPUL>
0

>  <SCORE.INTRA.REPUL.0>
0

>  <SCORE.INTRA.SOLV>
0

>  <SCORE.INTRA.SOLV.lig_0>
-48.1583

>  <SCORE.INTRA.VDW>
0

>  <SCORE.INTRA.VDW.0>
0

>  <SCORE.INTRA.norm>
0

>  <SCORE.RESTR>
0

>  <SCORE.RESTR.CAVITY>
0

>  <SCORE.RESTR.norm>
0

>  <SCORE.SYSTEM>
0

>  <SCORE.SYSTEM.CONST>
0

>  <SCORE.SYSTEM.DIHEDRAL>
0

>  <SCORE.SYSTEM.SOLV>
0

>  <SCORE.SYSTEM.norm>
0

>  <SCORE.heavy>
12

>  <SCORE.norm>
-0.850435

>  <RMSD>
26.821

$$$$
ligand
 OpenBabel02271912143D
libRbt.so/2013.1/901 2013/11/27
 12 13  0  0  0  0  0  0  0  0999 V2000
  -16.6792   31.7992   -3.6180 C   0  0  0  0  0  0  0  0  0  0  0  0
  -14.8312   30.4308   -4.0016 C   0  0  0  0  0  0  0  0  0  0  0  0
  -17.1674   33.0088   -3.3584 N   0  0  0  0  0  0  0  0  0  0  0  0
  -13.5139   30.2188   -4.0958 N   0  0  0  0  0  0  0  0  0  0  0  0
  -15.3417   31.6360   -3.7158 N   0  0  0  0  0  0  0  0  0  0  0  0
  -17.5256   30.7624   -3.8060 N   0  0  0  0  0  0  0  0  0  0  0  0
  -16.0360   26.9966   -4.6516 N   0  0  0  0  0  0  0  0  0  0  0  0
  -17.4199   27.2056   -4.5477 C   0  0  0  0  0  0  0  0  0  0  0  0
  -17.9200   28.4945   -4.2488 N   0  0  0  0  0  0  0  0  0  0  0  0
  -17.0572   29.5207   -4.0866 C   0  0  0  0  0  0  0  0  0  0  0  0
  -15.6760   29.3315   -4.1982 C   0  0  0  0  0  0  0  0  0  0  0  0
  -15.1447   28.0743   -4.4804 C   0  0  0  0  0  0  0  0  0  0  0  0
  1  3  1  0  0  0  0
  1  5  1  0  0  0  0
  1  6  2  0  0  0  0
  2  5  2  0  0  0  0
  2 11  1  0  0  0  0
  2  4  1  0  0  0  0
  6 10  1  0  0  0  0
  7  8  2  0  0  0  0
  7 12  1  0  0  0  0
  8  9  1  0  0  0  0
  9 10  2  0  0  0  0
 10 11  1  0  0  0  0
 11 12  2  0  0  0  0
M  END
>  <CHROM.1>
-16.19716481,29.82033450,-4.06065509,1.51897321,0.04530447,0.20511339

>  <Name>
ligand

>  <RI>
0

>  <Rbt.Current_Directory>
/home/itssahil/PROJECTS/Mol_Feturizer/Test_systems_manuscript/rnas/4lx5

>  <Rbt.Executable>
rbdock ($Id: //depot/dev/client3/rdock/2013.1/src/exe/rbdock.cxx#4 $)

>  <Rbt.Library>
libRbt.so (2013.1, Build901 2013/11/27)

>  <Rbt.Parameter_File>
/export/apps/rDock/src/rDock_2013.1_src/data/scripts/dock_solv.prm

>  <Rbt.Receptor>
prm/blind_docking_80.prm

>  <SCORE>
-10.2032

>  <SCORE.INTER>
-10.2032

>  <SCORE.INTER.CONST>
1

>  <SCORE.INTER.POLAR>
0

>  <SCORE.INTER.ROT>
0

>  <SCORE.INTER.SOLV>
6.86452

>  <SCORE.INTER.VDW>
-12.6903

>  <SCORE.INTER.norm>
-0.850263

>  <SCORE.INTRA>
0

>  <SCORE.INTRA.DIHEDRAL>
0

>  <SCORE.INTRA.DIHEDRAL.0>
0

>  <SCORE.INTRA.POLAR>
0

>  <SCORE.INTRA.POLAR.0>
0

>  <SCORE.INTRA.REPUL>
0

>  <SCORE.INTRA.REPUL.0>
0

>  <SCORE.INTRA.SOLV>
0

>  <SCORE.INTRA.SOLV.lig_0>
-48.1583

>  <SCORE.INTRA.VDW>
0

>  <SCORE.INTRA.VDW.0>
0

>  <SCORE.INTRA.norm>
0

>  <SCORE.RESTR>
0

>  <SCORE.RESTR.CAVITY>
0

>  <SCORE.RESTR.norm>
0

>  <SCORE.SYSTEM>
0

>  <SCORE.SYSTEM.CONST>
0

>  <SCORE.SYSTEM.DIHEDRAL>
0

>  <SCORE.SYSTEM.SOLV>
0

>  <SCORE.SYSTEM.norm>
0

>  <SCORE.heavy>
12

>  <SCORE.norm>
-0.850263

>  <RMSD>
26.825

$$$$
ligand
 OpenBabel02271912143D
libRbt.so/2013.1/901 2013/11/27
 12 13  0  0  0  0  0  0  0  0999 V2000
  -16.7554   31.7893   -3.6317 C   0  0  0  0  0  0  0  0  0  0  0  0
  -14.8692   30.4648   -3.9822 C   0  0  0  0  0  0  0  0  0  0  0  0
  -17.2768   32.9880   -3.3869 N   0  0  0  0  0  0  0  0  0  0  0  0
  -13.5459   30.2851   -4.0581 N   0  0  0  0  0  0  0  0  0  0  0  0
  -15.4131   31.6588   -3.7114 N   0  0  0  0  0  0  0  0  0  0  0  0
  -17.5733   30.7305   -3.8231 N   0  0  0  0  0  0  0  0  0  0  0  0
  -15.9799   26.9974   -4.6232 N   0  0  0  0  0  0  0  0  0  0  0  0
  -17.3697   27.1724   -4.5383 C   0  0  0  0  0  0  0  0  0  0  0  0
  -17.9055   28.4504   -4.2550 N   0  0  0  0  0  0  0  0  0  0  0  0
  -17.0706   29.4990   -4.0890 C   0  0  0  0  0  0  0  0  0  0  0  0
  -15.6838   29.3435   -4.1818 C   0  0  0  0  0  0  0  0  0  0  0  0
  -15.1179   28.0981   -4.4483 C   0  0  0  0  0  0  0  0  0  0  0  0
  1  3  1  0  0  0  0
  1  5  1  0  0  0  0
  1  6  2  0  0  0  0
  2  5  2  0  0  0  0
  2 11  1  0  0  0  0
  2  4  1  0  0  0  0
  6 10  1  0  0  0  0
  7  8  2  0  0  0  0
  7 12  1  0  0  0  0
  8  9  1  0  0  0  0
  9 10  2  0  0  0  0
 10 11  1  0  0  0  0
 11 12  2  0  0  0  0
M  END
>  <CHROM.1>
-16.21872946,29.82008700,-4.05425483,1.54593792,0.03775575,0.19711725

>  <Name>
ligand

>  <RI>
0

>  <Rbt.Current_Directory>
/home/itssahil/PROJECTS/Mol_Feturizer/Test_systems_manuscript/rnas/4lx5

>  <Rbt.Executable>
rbdock ($Id: //depot/dev/client3/rdock/2013.1/src/exe/rbdock.cxx#4 $)

>  <Rbt.Library>
libRbt.so (2013.1, Build901 2013/11/27)

>  <Rbt.Parameter_File>
/export/apps/rDock/src/rDock_2013.1_src/data/scripts/dock_solv.prm

>  <Rbt.Receptor>
prm/blind_docking_60.prm

>  <SCORE>
-10.178

>  <SCORE.INTER>
-10.178

>  <SCORE.INTER.CONST>
1

>  <SCORE.INTER.POLAR>
0

>  <SCORE.INTER.ROT>
0

>  <SCORE.INTER.SOLV>
7.12862

>  <SCORE.INTER.VDW>
-12.7615

>  <SCORE.INTER.norm>
-0.848166

>  <SCORE.INTRA>
0

>  <SCORE.INTRA.DIHEDRAL>
0

>  <SCORE.INTRA.DIHEDRAL.0>
0

>  <SCORE.INTRA.POLAR>
0

>  <SCORE.INTRA.POLAR.0>
0

>  <SCORE.INTRA.REPUL>
0

>  <SCORE.INTRA.REPUL.0>
0

>  <SCORE.INTRA.SOLV>
0

>  <SCORE.INTRA.SOLV.lig_0>
-48.1583

>  <SCORE.INTRA.VDW>
0

>  <SCORE.INTRA.VDW.0>
0

>  <SCORE.INTRA.norm>
0

>  <SCORE.RESTR>
0

>  <SCORE.RESTR.CAVITY>
0

>  <SCORE.RESTR.norm>
0

>  <SCORE.SYSTEM>
0

>  <SCORE.SYSTEM.CONST>
0

>  <SCORE.SYSTEM.DIHEDRAL>
0

>  <SCORE.SYSTEM.SOLV>
0

>  <SCORE.SYSTEM.norm>
0

>  <SCORE.heavy>
12

>  <SCORE.norm>
-0.848166

>  <RMSD>
26.841

$$$$
ligand
 OpenBabel02271912143D
libRbt.so/2013.1/901 2013/11/27
 12 13  0  0  0  0  0  0  0  0999 V2000
  -16.7657   31.7818   -3.6605 C   0  0  0  0  0  0  0  0  0  0  0  0
  -14.8797   30.4541   -3.9999 C   0  0  0  0  0  0  0  0  0  0  0  0
  -17.2866   32.9819   -3.4209 N   0  0  0  0  0  0  0  0  0  0  0  0
  -13.5564   30.2726   -4.0701 N   0  0  0  0  0  0  0  0  0  0  0  0
  -15.4232   31.6495   -3.7344 N   0  0  0  0  0  0  0  0  0  0  0  0
  -17.5841   30.7235   -3.8524 N   0  0  0  0  0  0  0  0  0  0  0  0
  -15.9921   26.9864   -4.6362 N   0  0  0  0  0  0  0  0  0  0  0  0
  -17.3821   27.1634   -4.5573 C   0  0  0  0  0  0  0  0  0  0  0  0
  -17.9174   28.4428   -4.2795 N   0  0  0  0  0  0  0  0  0  0  0  0
  -17.0819   29.4907   -4.1130 C   0  0  0  0  0  0  0  0  0  0  0  0
  -15.6949   29.3333   -4.1998 C   0  0  0  0  0  0  0  0  0  0  0  0
  -15.1295   28.0865   -4.4607 C   0  0  0  0  0  0  0  0  0  0  0  0
  1  3  1  0  0  0  0
  1  5  1  0  0  0  0
  1  6  2  0  0  0  0
  2  5  2  0  0  0  0
  2 11  1  0  0  0  0
  2  4  1  0  0  0  0
  6 10  1  0  0  0  0
  7  8  2  0  0  0  0
  7 12  1  0  0  0  0
  8  9  1  0  0  0  0
  9 10  2  0  0  0  0
 10 11  1  0  0  0  0
 11 12  2  0  0  0  0
M  END
>  <CHROM.1>
-16.22973245,29.81089119,-4.07568531,1.54550033,0.03359334,0.19447842

>  <Name>
ligand

>  <RI>
0

>  <Rbt.Current_Directory>
/home/itssahil/PROJECTS/Mol_Feturizer/Test_systems_manuscript/rnas/4lx5

>  <Rbt.Executable>
rbdock ($Id: //depot/dev/client3/rdock/2013.1/src/exe/rbdock.cxx#4 $)

>  <Rbt.Library>
libRbt.so (2013.1, Build901 2013/11/27)

>  <Rbt.Parameter_File>
/export/apps/rDock/src/rDock_2013.1_src/data/scripts/dock_solv.prm

>  <Rbt.Receptor>
prm/blind_docking_80.prm

>  <SCORE>
-10.2074

>  <SCORE.INTER>
-10.2074

>  <SCORE.INTER.CONST>
1

>  <SCORE.INTER.POLAR>
0

>  <SCORE.INTER.ROT>
0

>  <SCORE.INTER.SOLV>
7.1127

>  <SCORE.INTER.VDW>
-12.7758

>  <SCORE.INTER.norm>
-0.850616

>  <SCORE.INTRA>
0

>  <SCORE.INTRA.DIHEDRAL>
0

>  <SCORE.INTRA.DIHEDRAL.0>
0

>  <SCORE.INTRA.POLAR>
0

>  <SCORE.INTRA.POLAR.0>
0

>  <SCORE.INTRA.REPUL>
0

>  <SCORE.INTRA.REPUL.0>
0

>  <SCORE.INTRA.SOLV>
0

>  <SCORE.INTRA.SOLV.lig_0>
-48.1583

>  <SCORE.INTRA.VDW>
0

>  <SCORE.INTRA.VDW.0>
0

>  <SCORE.INTRA.norm>
0

>  <SCORE.RESTR>
0

>  <SCORE.RESTR.CAVITY>
0

>  <SCORE.RESTR.norm>
0

>  <SCORE.SYSTEM>
0

>  <SCORE.SYSTEM.CONST>
0

>  <SCORE.SYSTEM.DIHEDRAL>
0

>  <SCORE.SYSTEM.SOLV>
0

>  <SCORE.SYSTEM.norm>
0

>  <SCORE.heavy>
12

>  <SCORE.norm>
-0.850616

>  <RMSD>
26.852

$$$$
ligand
 OpenBabel02271912143D
libRbt.so/2013.1/901 2013/11/27
 12 13  0  0  0  0  0  0  0  0999 V2000
  -16.8200   31.7447   -3.6611 C   0  0  0  0  0  0  0  0  0  0  0  0
  -14.9098   30.4575   -4.0202 C   0  0  0  0  0  0  0  0  0  0  0  0
  -17.3638   32.9333   -3.4152 N   0  0  0  0  0  0  0  0  0  0  0  0
  -13.5837   30.3040   -4.1033 N   0  0  0  0  0  0  0  0  0  0  0  0
  -15.4759   31.6408   -3.7482 N   0  0  0  0  0  0  0  0  0  0  0  0
  -17.6178   30.6695   -3.8464 N   0  0  0  0  0  0  0  0  0  0  0  0
  -15.9548   26.9676   -4.6497 N   0  0  0  0  0  0  0  0  0  0  0  0
  -17.3474   27.1151   -4.5573 C   0  0  0  0  0  0  0  0  0  0  0  0
  -17.9069   28.3826   -4.2729 N   0  0  0  0  0  0  0  0  0  0  0  0
  -17.0922   29.4479   -4.1132 C   0  0  0  0  0  0  0  0  0  0  0  0
  -15.7031   29.3198   -4.2135 C   0  0  0  0  0  0  0  0  0  0  0  0
  -15.1139   28.0855   -4.4813 C   0  0  0  0  0  0  0  0  0  0  0  0
  1  3  1  0  0  0  0
  1  5  1  0  0  0  0
  1  6  2  0  0  0  0
  2  5  2  0  0  0  0
  2 11  1  0  0  0  0
  2  4  1  0  0  0  0
  6 10  1  0  0  0  0
  7  8  2  0  0  0  0
  7 12  1  0  0  0  0
  8  9  1  0  0  0  0
  9 10  2  0  0  0  0
 10 11  1  0  0  0  0
 11 12  2  0  0  0  0
M  END
>  <CHROM.1>
-16.24663222,29.78590073,-4.08371412,1.56438385,0.04711606,0.19475072

>  <Name>
ligand

>  <RI>
0

>  <Rbt.Current_Directory>
/home/itssahil/PROJECTS/Mol_Feturizer/Test_systems_manuscript/rnas/4lx5

>  <Rbt.Executable>
rbdock ($Id: //depot/dev/client3/rdock/2013.1/src/exe/rbdock.cxx#4 $)

>  <Rbt.Library>
libRbt.so (2013.1, Build901 2013/11/27)

>  <Rbt.Parameter_File>
/export/apps/rDock/src/rDock_2013.1_src/data/scripts/dock_solv.prm

>  <Rbt.Receptor>
prm/blind_docking_40.prm

>  <SCORE>
-10.1302

>  <SCORE.INTER>
-10.1302

>  <SCORE.INTER.CONST>
1

>  <SCORE.INTER.POLAR>
0

>  <SCORE.INTER.ROT>
0

>  <SCORE.INTER.SOLV>
7.38793

>  <SCORE.INTER.VDW>
-12.8161

>  <SCORE.INTER.norm>
-0.844182

>  <SCORE.INTRA>
0

>  <SCORE.INTRA.DIHEDRAL>
0

>  <SCORE.INTRA.DIHEDRAL.0>
0

>  <SCORE.INTRA.POLAR>
0

>  <SCORE.INTRA.POLAR.0>
0

>  <SCORE.INTRA.REPUL>
0

>  <SCORE.INTRA.REPUL.0>
0

>  <SCORE.INTRA.SOLV>
0

>  <SCORE.INTRA.SOLV.lig_0>
-48.1583

>  <SCORE.INTRA.VDW>
0

>  <SCORE.INTRA.VDW.0>
0

>  <SCORE.INTRA.norm>
0

>  <SCORE.RESTR>
0

>  <SCORE.RESTR.CAVITY>
0

>  <SCORE.RESTR.norm>
0

>  <SCORE.SYSTEM>
0

>  <SCORE.SYSTEM.CONST>
0

>  <SCORE.SYSTEM.DIHEDRAL>
0

>  <SCORE.SYSTEM.SOLV>
0

>  <SCORE.SYSTEM.norm>
0

>  <SCORE.heavy>
12

>  <SCORE.norm>
-0.844182

>  <RMSD>
26.858

$$$$
ligand
 OpenBabel02271912143D
libRbt.so/2013.1/901 2013/11/27
 12 13  0  0  0  0  0  0  0  0999 V2000
  -16.8325   31.7607   -3.6569 C   0  0  0  0  0  0  0  0  0  0  0  0
  -14.9231   30.4731   -4.0190 C   0  0  0  0  0  0  0  0  0  0  0  0
  -17.3759   32.9501   -3.4140 N   0  0  0  0  0  0  0  0  0  0  0  0
  -13.5973   30.3201   -4.1076 N   0  0  0  0  0  0  0  0  0  0  0  0
  -15.4886   31.6573   -3.7498 N   0  0  0  0  0  0  0  0  0  0  0  0
  -17.6303   30.6842   -3.8333 N   0  0  0  0  0  0  0  0  0  0  0  0
  -15.9687   26.9796   -4.6270 N   0  0  0  0  0  0  0  0  0  0  0  0
  -17.3609   27.1266   -4.5287 C   0  0  0  0  0  0  0  0  0  0  0  0
  -17.9199   28.3951   -4.2476 N   0  0  0  0  0  0  0  0  0  0  0  0
  -17.1052   29.4616   -4.0969 C   0  0  0  0  0  0  0  0  0  0  0  0
  -15.7165   29.3340   -4.2031 C   0  0  0  0  0  0  0  0  0  0  0  0
  -15.1278   28.0988   -4.4679 C   0  0  0  0  0  0  0  0  0  0  0  0
  1  3  1  0  0  0  0
  1  5  1  0  0  0  0
  1  6  2  0  0  0  0
  2  5  2  0  0  0  0
  2 11  1  0  0  0  0
  2  4  1  0  0  0  0
  6 10  1  0  0  0  0
  7  8  2  0  0  0  0
  7 12  1  0  0  0  0
  8  9  1  0  0  0  0
  9 10  2  0  0  0  0
 10 11  1  0  0  0  0
 11 12  2  0  0  0  0
M  END
>  <CHROM.1>
-16.25973855,29.80035896,-4.07298882,1.56413195,0.05189851,0.19005303

>  <Name>
ligand

>  <RI>
0

>  <Rbt.Current_Directory>
/home/itssahil/PROJECTS/Mol_Feturizer/Test_systems_manuscript/rnas/4lx5

>  <Rbt.Executable>
rbdock ($Id: //depot/dev/client3/rdock/2013.1/src/exe/rbdock.cxx#4 $)

>  <Rbt.Library>
libRbt.so (2013.1, Build901 2013/11/27)

>  <Rbt.Parameter_File>
/export/apps/rDock/src/rDock_2013.1_src/data/scripts/dock_solv.prm

>  <Rbt.Receptor>
prm/blind_docking_60.prm

>  <SCORE>
-10.1686

>  <SCORE.INTER>
-10.1686

>  <SCORE.INTER.CONST>
1

>  <SCORE.INTER.POLAR>
0

>  <SCORE.INTER.ROT>
0

>  <SCORE.INTER.SOLV>
7.45994

>  <SCORE.INTER.VDW>
-12.8657

>  <SCORE.INTER.norm>
-0.847382

>  <SCORE.INTRA>
0

>  <SCORE.INTRA.DIHEDRAL>
0

>  <SCORE.INTRA.DIHEDRAL.0>
0

>  <SCORE.INTRA.POLAR>
0

>  <SCORE.INTRA.POLAR.0>
0

>  <SCORE.INTRA.REPUL>
0

>  <SCORE.INTRA.REPUL.0>
0

>  <SCORE.INTRA.SOLV>
0

>  <SCORE.INTRA.SOLV.lig_0>
-48.1583

>  <SCORE.INTRA.VDW>
0

>  <SCORE.INTRA.VDW.0>
0

>  <SCORE.INTRA.norm>
0

>  <SCORE.RESTR>
0

>  <SCORE.RESTR.CAVITY>
0

>  <SCORE.RESTR.norm>
0

>  <SCORE.SYSTEM>
0

>  <SCORE.SYSTEM.CONST>
0

>  <SCORE.SYSTEM.DIHEDRAL>
0

>  <SCORE.SYSTEM.SOLV>
0

>  <SCORE.SYSTEM.norm>
0

>  <SCORE.heavy>
12

>  <SCORE.norm>
-0.847382

>  <RMSD>
26.872

$$$$
ligand
 OpenBabel02271912143D
libRbt.so/2013.1/901 2013/11/27
 12 13  0  0  0  0  0  0  0  0999 V2000
  -16.8372   31.7646   -3.6368 C   0  0  0  0  0  0  0  0  0  0  0  0
  -14.9248   30.4830   -4.0047 C   0  0  0  0  0  0  0  0  0  0  0  0
  -17.3833   32.9515   -3.3878 N   0  0  0  0  0  0  0  0  0  0  0  0
  -13.5987   30.3333   -4.0932 N   0  0  0  0  0  0  0  0  0  0  0  0
  -15.4931   31.6645   -3.7294 N   0  0  0  0  0  0  0  0  0  0  0  0
  -17.6327   30.6874   -3.8197 N   0  0  0  0  0  0  0  0  0  0  0  0
  -15.9627   26.9907   -4.6327 N   0  0  0  0  0  0  0  0  0  0  0  0
  -17.3553   27.1343   -4.5346 C   0  0  0  0  0  0  0  0  0  0  0  0
  -17.9171   28.4000   -4.2469 N   0  0  0  0  0  0  0  0  0  0  0  0
  -17.1047   29.4674   -4.0897 C   0  0  0  0  0  0  0  0  0  0  0  0
  -15.7157   29.3433   -4.1957 C   0  0  0  0  0  0  0  0  0  0  0  0
  -15.1242   28.1108   -4.4668 C   0  0  0  0  0  0  0  0  0  0  0  0
  1  3  1  0  0  0  0
  1  5  1  0  0  0  0
  1  6  2  0  0  0  0
  2  5  2  0  0  0  0
  2 11  1  0  0  0  0
  2  4  1  0  0  0  0
  6 10  1  0  0  0  0
  7  8  2  0  0  0  0
  7 12  1  0  0  0  0
  8  9  1  0  0  0  0
  9 10  2  0  0  0  0
 10 11  1  0  0  0  0
 11 12  2  0  0  0  0
M  END
>  <CHROM.1>
-16.26003807,29.80777350,-4.06333037,1.56634112,0.05161558,0.19545212

>  <Name>
ligand

>  <RI>
0

>  <Rbt.Current_Directory>
/home/itssahil/PROJECTS/Mol_Feturizer/Test_systems_manuscript/rnas/4lx5

>  <Rbt.Executable>
rbdock ($Id: //depot/dev/client3/rdock/2013.1/src/exe/rbdock.cxx#4 $)

>  <Rbt.Library>
libRbt.so (2013.1, Build901 2013/11/27)

>  <Rbt.Parameter_File>
/export/apps/rDock/src/rDock_2013.1_src/data/scripts/dock_solv.prm

>  <Rbt.Receptor>
prm/blind_docking_80.prm

>  <SCORE>
-10.2006

>  <SCORE.INTER>
-10.2006

>  <SCORE.INTER.CONST>
1

>  <SCORE.INTER.POLAR>
0

>  <SCORE.INTER.ROT>
0

>  <SCORE.INTER.SOLV>
7.49041

>  <SCORE.INTER.VDW>
-12.8972

>  <SCORE.INTER.norm>
-0.850054

>  <SCORE.INTRA>
0

>  <SCORE.INTRA.DIHEDRAL>
0

>  <SCORE.INTRA.DIHEDRAL.0>
0

>  <SCORE.INTRA.POLAR>
0

>  <SCORE.INTRA.POLAR.0>
0

>  <SCORE.INTRA.REPUL>
0

>  <SCORE.INTRA.REPUL.0>
0

>  <SCORE.INTRA.SOLV>
0

>  <SCORE.INTRA.SOLV.lig_0>
-48.1583

>  <SCORE.INTRA.VDW>
0

>  <SCORE.INTRA.VDW.0>
0

>  <SCORE.INTRA.norm>
0

>  <SCORE.RESTR>
0

>  <SCORE.RESTR.CAVITY>
0

>  <SCORE.RESTR.norm>
0

>  <SCORE.SYSTEM>
0

>  <SCORE.SYSTEM.CONST>
0

>  <SCORE.SYSTEM.DIHEDRAL>
0

>  <SCORE.SYSTEM.SOLV>
0

>  <SCORE.SYSTEM.norm>
0

>  <SCORE.heavy>
12

>  <SCORE.norm>
-0.850054

>  <RMSD>
26.873

$$$$
ligand
 OpenBabel02271912143D
libRbt.so/2013.1/901 2013/11/27
 12 13  0  0  0  0  0  0  0  0999 V2000
  -16.8346   31.7639   -3.6356 C   0  0  0  0  0  0  0  0  0  0  0  0
  -14.9261   30.4771   -4.0052 C   0  0  0  0  0  0  0  0  0  0  0  0
  -17.3774   32.9524   -3.3869 N   0  0  0  0  0  0  0  0  0  0  0  0
  -13.6004   30.3240   -4.0956 N   0  0  0  0  0  0  0  0  0  0  0  0
  -15.4909   31.6603   -3.7302 N   0  0  0  0  0  0  0  0  0  0  0  0
  -17.6331   30.6885   -3.8163 N   0  0  0  0  0  0  0  0  0  0  0  0
  -15.9737   26.9869   -4.6283 N   0  0  0  0  0  0  0  0  0  0  0  0
  -17.3658   27.1340   -4.5282 C   0  0  0  0  0  0  0  0  0  0  0  0
  -17.9240   28.4015   -4.2409 N   0  0  0  0  0  0  0  0  0  0  0  0
  -17.1087   29.4669   -4.0859 C   0  0  0  0  0  0  0  0  0  0  0  0
  -15.7201   29.3392   -4.1939 C   0  0  0  0  0  0  0  0  0  0  0  0
  -15.1322   28.1050   -4.4648 C   0  0  0  0  0  0  0  0  0  0  0  0
  1  3  1  0  0  0  0
  1  5  1  0  0  0  0
  1  6  2  0  0  0  0
  2  5  2  0  0  0  0
  2 11  1  0  0  0  0
  2  4  1  0  0  0  0
  6 10  1  0  0  0  0
  7  8  2  0  0  0  0
  7 12  1  0  0  0  0
  8  9  1  0  0  0  0
  9 10  2  0  0  0  0
 10 11  1  0  0  0  0
 11 12  2  0  0  0  0
M  END
>  <CHROM.1>
-16.26307062,29.80520804,-4.06116418,1.56355820,0.05263441,0.19465366

>  <Name>
ligand

>  <RI>
0

>  <Rbt.Current_Directory>
/home/itssahil/PROJECTS/Mol_Feturizer/Test_systems_manuscript/rnas/4lx5

>  <Rbt.Executable>
rbdock ($Id: //depot/dev/client3/rdock/2013.1/src/exe/rbdock.cxx#4 $)

>  <Rbt.Library>
libRbt.so (2013.1, Build901 2013/11/27)

>  <Rbt.Parameter_File>
/export/apps/rDock/src/rDock_2013.1_src/data/scripts/dock_solv.prm

>  <Rbt.Receptor>
prm/blind_docking_80.prm

>  <SCORE>
-10.2011

>  <SCORE.INTER>
-10.2011

>  <SCORE.INTER.CONST>
1

>  <SCORE.INTER.POLAR>
0

>  <SCORE.INTER.ROT>
0

>  <SCORE.INTER.SOLV>
7.48069

>  <SCORE.INTER.VDW>
-12.8943

>  <SCORE.INTER.norm>
-0.850092

>  <SCORE.INTRA>
0

>  <SCORE.INTRA.DIHEDRAL>
0

>  <SCORE.INTRA.DIHEDRAL.0>
0

>  <SCORE.INTRA.POLAR>
0

>  <SCORE.INTRA.POLAR.0>
0

>  <SCORE.INTRA.REPUL>
0

>  <SCORE.INTRA.REPUL.0>
0

>  <SCORE.INTRA.SOLV>
0

>  <SCORE.INTRA.SOLV.lig_0>
-48.1583

>  <SCORE.INTRA.VDW>
0

>  <SCORE.INTRA.VDW.0>
0

>  <SCORE.INTRA.norm>
0

>  <SCORE.RESTR>
0

>  <SCORE.RESTR.CAVITY>
0

>  <SCORE.RESTR.norm>
0

>  <SCORE.SYSTEM>
0

>  <SCORE.SYSTEM.CONST>
0

>  <SCORE.SYSTEM.DIHEDRAL>
0

>  <SCORE.SYSTEM.SOLV>
0

>  <SCORE.SYSTEM.norm>
0

>  <SCORE.heavy>
12

>  <SCORE.norm>
-0.850092

>  <RMSD>
26.874

$$$$
ligand
 OpenBabel02271912143D
libRbt.so/2013.1/901 2013/11/27
 12 13  0  0  0  0  0  0  0  0999 V2000
  -16.8384   31.7653   -3.6357 C   0  0  0  0  0  0  0  0  0  0  0  0
  -14.9270   30.4821   -4.0027 C   0  0  0  0  0  0  0  0  0  0  0  0
  -17.3835   32.9525   -3.3859 N   0  0  0  0  0  0  0  0  0  0  0  0
  -13.6009   30.3310   -4.0897 N   0  0  0  0  0  0  0  0  0  0  0  0
  -15.4943   31.6639   -3.7266 N   0  0  0  0  0  0  0  0  0  0  0  0
  -17.6348   30.6892   -3.8210 N   0  0  0  0  0  0  0  0  0  0  0  0
  -15.9679   26.9917   -4.6364 N   0  0  0  0  0  0  0  0  0  0  0  0
  -17.3605   27.1367   -4.5400 C   0  0  0  0  0  0  0  0  0  0  0  0
  -17.9213   28.4027   -4.2514 N   0  0  0  0  0  0  0  0  0  0  0  0
  -17.1079   29.4690   -4.0918 C   0  0  0  0  0  0  0  0  0  0  0  0
  -15.7189   29.3435   -4.1961 C   0  0  0  0  0  0  0  0  0  0  0  0
  -15.1284   28.1107   -4.4681 C   0  0  0  0  0  0  0  0  0  0  0  0
  1  3  1  0  0  0  0
  1  5  1  0  0  0  0
  1  6  2  0  0  0  0
  2  5  2  0  0  0  0
  2 11  1  0  0  0  0
  2  4  1  0  0  0  0
  6 10  1  0  0  0  0
  7  8  2  0  0  0  0
  7 12  1  0  0  0  0
  8  9  1  0  0  0  0
  9 10  2  0  0  0  0
 10 11  1  0  0  0  0
 11 12  2  0  0  0  0
M  END
>  <CHROM.1>
-16.26287899,29.80838626,-4.06391112,1.56550417,0.05011540,0.19675105

>  <Name>
ligand

>  <RI>
0

>  <Rbt.Current_Directory>
/home/itssahil/PROJECTS/Mol_Feturizer/Test_systems_manuscript/rnas/4lx5

>  <Rbt.Executable>
rbdock ($Id: //depot/dev/client3/rdock/2013.1/src/exe/rbdock.cxx#4 $)

>  <Rbt.Library>
libRbt.so (2013.1, Build901 2013/11/27)

>  <Rbt.Parameter_File>
/export/apps/rDock/src/rDock_2013.1_src/data/scripts/dock_solv.prm

>  <Rbt.Receptor>
prm/blind_docking_100.prm

>  <SCORE>
-10.2005

>  <SCORE.INTER>
-10.2005

>  <SCORE.INTER.CONST>
1

>  <SCORE.INTER.POLAR>
0

>  <SCORE.INTER.ROT>
0

>  <SCORE.INTER.SOLV>
7.48187

>  <SCORE.INTER.VDW>
-12.8943

>  <SCORE.INTER.norm>
-0.850038

>  <SCORE.INTRA>
0

>  <SCORE.INTRA.DIHEDRAL>
0

>  <SCORE.INTRA.DIHEDRAL.0>
0

>  <SCORE.INTRA.POLAR>
0

>  <SCORE.INTRA.POLAR.0>
0

>  <SCORE.INTRA.REPUL>
0

>  <SCORE.INTRA.REPUL.0>
0

>  <SCORE.INTRA.SOLV>
0

>  <SCORE.INTRA.SOLV.lig_0>
-48.1583

>  <SCORE.INTRA.VDW>
0

>  <SCORE.INTRA.VDW.0>
0

>  <SCORE.INTRA.norm>
0

>  <SCORE.RESTR>
0

>  <SCORE.RESTR.CAVITY>
0

>  <SCORE.RESTR.norm>
0

>  <SCORE.SYSTEM>
0

>  <SCORE.SYSTEM.CONST>
0

>  <SCORE.SYSTEM.DIHEDRAL>
0

>  <SCORE.SYSTEM.SOLV>
0

>  <SCORE.SYSTEM.norm>
0

>  <SCORE.heavy>
12

>  <SCORE.norm>
-0.850038

>  <RMSD>
26.876

$$$$
ligand
 OpenBabel02271912143D
libRbt.so/2013.1/901 2013/11/27
 12 13  0  0  0  0  0  0  0  0999 V2000
  -16.8363   31.7656   -3.6364 C   0  0  0  0  0  0  0  0  0  0  0  0
  -14.9281   30.4782   -4.0055 C   0  0  0  0  0  0  0  0  0  0  0  0
  -17.3787   32.9541   -3.3870 N   0  0  0  0  0  0  0  0  0  0  0  0
  -13.6024   30.3244   -4.0948 N   0  0  0  0  0  0  0  0  0  0  0  0
  -15.4926   31.6614   -3.7298 N   0  0  0  0  0  0  0  0  0  0  0  0
  -17.6352   30.6908   -3.8189 N   0  0  0  0  0  0  0  0  0  0  0  0
  -15.9769   26.9891   -4.6331 N   0  0  0  0  0  0  0  0  0  0  0  0
  -17.3690   27.1369   -4.5341 C   0  0  0  0  0  0  0  0  0  0  0  0
  -17.9269   28.4043   -4.2460 N   0  0  0  0  0  0  0  0  0  0  0  0
  -17.1111   29.4692   -4.0892 C   0  0  0  0  0  0  0  0  0  0  0  0
  -15.7225   29.3409   -4.1960 C   0  0  0  0  0  0  0  0  0  0  0  0
  -15.1350   28.1066   -4.4676 C   0  0  0  0  0  0  0  0  0  0  0  0
  1  3  1  0  0  0  0
  1  5  1  0  0  0  0
  1  6  2  0  0  0  0
  2  5  2  0  0  0  0
  2 11  1  0  0  0  0
  2  4  1  0  0  0  0
  6 10  1  0  0  0  0
  7  8  2  0  0  0  0
  7 12  1  0  0  0  0
  8  9  1  0  0  0  0
  9 10  2  0  0  0  0
 10 11  1  0  0  0  0
 11 12  2  0  0  0  0
M  END
>  <CHROM.1>
-16.26538420,29.80700403,-4.06335044,1.56323045,0.05160816,0.19566319

>  <Name>
ligand

>  <RI>
0

>  <Rbt.Current_Directory>
/home/itssahil/PROJECTS/Mol_Feturizer/Test_systems_manuscript/rnas/4lx5

>  <Rbt.Executable>
rbdock ($Id: //depot/dev/client3/rdock/2013.1/src/exe/rbdock.cxx#4 $)

>  <Rbt.Library>
libRbt.so (2013.1, Build901 2013/11/27)

>  <Rbt.Parameter_File>
/export/apps/rDock/src/rDock_2013.1_src/data/scripts/dock_solv.prm

>  <Rbt.Receptor>
prm/blind_docking_40.prm

>  <SCORE>
-10.2014

>  <SCORE.INTER>
-10.2014

>  <SCORE.INTER.CONST>
1

>  <SCORE.INTER.POLAR>
0

>  <SCORE.INTER.ROT>
0

>  <SCORE.INTER.SOLV>
7.47663

>  <SCORE.INTER.VDW>
-12.8932

>  <SCORE.INTER.norm>
-0.850119

>  <SCORE.INTRA>
0

>  <SCORE.INTRA.DIHEDRAL>
0

>  <SCORE.INTRA.DIHEDRAL.0>
0

>  <SCORE.INTRA.POLAR>
0

>  <SCORE.INTRA.POLAR.0>
0

>  <SCORE.INTRA.REPUL>
0

>  <SCORE.INTRA.REPUL.0>
0

>  <SCORE.INTRA.SOLV>
0

>  <SCORE.INTRA.SOLV.lig_0>
-48.1583

>  <SCORE.INTRA.VDW>
0

>  <SCORE.INTRA.VDW.0>
0

>  <SCORE.INTRA.norm>
0

>  <SCORE.RESTR>
0

>  <SCORE.RESTR.CAVITY>
0

>  <SCORE.RESTR.norm>
0

>  <SCORE.SYSTEM>
0

>  <SCORE.SYSTEM.CONST>
0

>  <SCORE.SYSTEM.DIHEDRAL>
0

>  <SCORE.SYSTEM.SOLV>
0

>  <SCORE.SYSTEM.norm>
0

>  <SCORE.heavy>
12

>  <SCORE.norm>
-0.850119

>  <RMSD>
26.877

$$$$
ligand
 OpenBabel02271912143D
libRbt.so/2013.1/901 2013/11/27
 12 13  0  0  0  0  0  0  0  0999 V2000
  -16.8390   31.7657   -3.6385 C   0  0  0  0  0  0  0  0  0  0  0  0
  -14.9275   30.4811   -3.9999 C   0  0  0  0  0  0  0  0  0  0  0  0
  -17.3841   32.9533   -3.3907 N   0  0  0  0  0  0  0  0  0  0  0  0
  -13.6012   30.3291   -4.0833 N   0  0  0  0  0  0  0  0  0  0  0  0
  -15.4948   31.6633   -3.7259 N   0  0  0  0  0  0  0  0  0  0  0  0
  -17.6356   30.6899   -3.8254 N   0  0  0  0  0  0  0  0  0  0  0  0
  -15.9688   26.9911   -4.6347 N   0  0  0  0  0  0  0  0  0  0  0  0
  -17.3615   27.1369   -4.5420 C   0  0  0  0  0  0  0  0  0  0  0  0
  -17.9224   28.4034   -4.2555 N   0  0  0  0  0  0  0  0  0  0  0  0
  -17.1088   29.4693   -4.0942 C   0  0  0  0  0  0  0  0  0  0  0  0
  -15.7195   29.3428   -4.1948 C   0  0  0  0  0  0  0  0  0  0  0  0
  -15.1291   28.1096   -4.4646 C   0  0  0  0  0  0  0  0  0  0  0  0
  1  3  1  0  0  0  0
  1  5  1  0  0  0  0
  1  6  2  0  0  0  0
  2  5  2  0  0  0  0
  2 11  1  0  0  0  0
  2  4  1  0  0  0  0
  6 10  1  0  0  0  0
  7  8  2  0  0  0  0
  7 12  1  0  0  0  0
  8  9  1  0  0  0  0
  9 10  2  0  0  0  0
 10 11  1  0  0  0  0
 11 12  2  0  0  0  0
M  END
>  <CHROM.1>
-16.26358266,29.80816059,-4.06428069,1.56541453,0.04741599,0.19627724

>  <Name>
ligand

>  <RI>
0

>  <Rbt.Current_Directory>
/home/itssahil/PROJECTS/Mol_Feturizer/Test_systems_manuscript/rnas/4lx5

>  <Rbt.Executable>
rbdock ($Id: //depot/dev/client3/rdock/2013.1/src/exe/rbdock.cxx#4 $)

>  <Rbt.Library>
libRbt.so (2013.1, Build901 2013/11/27)

>  <Rbt.Parameter_File>
/export/apps/rDock/src/rDock_2013.1_src/data/scripts/dock_solv.prm

>  <Rbt.Receptor>
prm/blind_docking_60.prm

>  <SCORE>
-10.2015

>  <SCORE.INTER>
-10.2015

>  <SCORE.INTER.CONST>
1

>  <SCORE.INTER.POLAR>
0

>  <SCORE.INTER.ROT>
0

>  <SCORE.INTER.SOLV>
7.46052

>  <SCORE.INTER.VDW>
-12.8878

>  <SCORE.INTER.norm>
-0.850125

>  <SCORE.INTRA>
0

>  <SCORE.INTRA.DIHEDRAL>
0

>  <SCORE.INTRA.DIHEDRAL.0>
0

>  <SCORE.INTRA.POLAR>
0

>  <SCORE.INTRA.POLAR.0>
0

>  <SCORE.INTRA.REPUL>
0

>  <SCORE.INTRA.REPUL.0>
0

>  <SCORE.INTRA.SOLV>
0

>  <SCORE.INTRA.SOLV.lig_0>
-48.1583

>  <SCORE.INTRA.VDW>
0

>  <SCORE.INTRA.VDW.0>
0

>  <SCORE.INTRA.norm>
0

>  <SCORE.RESTR>
0

>  <SCORE.RESTR.CAVITY>
0

>  <SCORE.RESTR.norm>
0

>  <SCORE.SYSTEM>
0

>  <SCORE.SYSTEM.CONST>
0

>  <SCORE.SYSTEM.DIHEDRAL>
0

>  <SCORE.SYSTEM.SOLV>
0

>  <SCORE.SYSTEM.norm>
0

>  <SCORE.heavy>
12

>  <SCORE.norm>
-0.850125

>  <RMSD>
26.877

$$$$
ligand
 OpenBabel02271912143D
libRbt.so/2013.1/901 2013/11/27
 12 13  0  0  0  0  0  0  0  0999 V2000
  -16.8453   31.7705   -3.6374 C   0  0  0  0  0  0  0  0  0  0  0  0
  -14.9293   30.4921   -3.9977 C   0  0  0  0  0  0  0  0  0  0  0  0
  -17.3944   32.9565   -3.3909 N   0  0  0  0  0  0  0  0  0  0  0  0
  -13.6026   30.3447   -4.0814 N   0  0  0  0  0  0  0  0  0  0  0  0
  -15.5007   31.6727   -3.7250 N   0  0  0  0  0  0  0  0  0  0  0  0
  -17.6382   30.6917   -3.8227 N   0  0  0  0  0  0  0  0  0  0  0  0
  -15.9587   26.9977   -4.6280 N   0  0  0  0  0  0  0  0  0  0  0  0
  -17.3519   27.1388   -4.5350 C   0  0  0  0  0  0  0  0  0  0  0  0
  -17.9171   28.4037   -4.2499 N   0  0  0  0  0  0  0  0  0  0  0  0
  -17.1071   29.4726   -4.0902 C   0  0  0  0  0  0  0  0  0  0  0  0
  -15.7175   29.3509   -4.1911 C   0  0  0  0  0  0  0  0  0  0  0  0
  -15.1229   28.1194   -4.4596 C   0  0  0  0  0  0  0  0  0  0  0  0
  1  3  1  0  0  0  0
  1  5  1  0  0  0  0
  1  6  2  0  0  0  0
  2  5  2  0  0  0  0
  2 11  1  0  0  0  0
  2  4  1  0  0  0  0
  6 10  1  0  0  0  0
  7  8  2  0  0  0  0
  7 12  1  0  0  0  0
  8  9  1  0  0  0  0
  9 10  2  0  0  0  0
 10 11  1  0  0  0  0
 11 12  2  0  0  0  0
M  END
>  <CHROM.1>
-16.26312476,29.81445929,-4.06093185,1.56877082,0.04840217,0.19490248

>  <Name>
ligand

>  <RI>
0

>  <Rbt.Current_Directory>
/home/itssahil/PROJECTS/Mol_Feturizer/Test_systems_manuscript/rnas/4lx5

>  <Rbt.Executable>
rbdock ($Id: //depot/dev/client3/rdock/2013.1/src/exe/rbdock.cxx#4 $)

>  <Rbt.Library>
libRbt.so (2013.1, Build901 2013/11/27)

>  <Rbt.Parameter_File>
/export/apps/rDock/src/rDock_2013.1_src/data/scripts/dock_solv.prm

>  <Rbt.Receptor>
prm/blind_docking_40.prm

>  <SCORE>
-10.2012

>  <SCORE.INTER>
-10.2012

>  <SCORE.INTER.CONST>
1

>  <SCORE.INTER.POLAR>
0

>  <SCORE.INTER.ROT>
0

>  <SCORE.INTER.SOLV>
7.49714

>  <SCORE.INTER.VDW>
-12.8998

>  <SCORE.INTER.norm>
-0.8501

>  <SCORE.INTRA>
0

>  <SCORE.INTRA.DIHEDRAL>
0

>  <SCORE.INTRA.DIHEDRAL.0>
0

>  <SCORE.INTRA.POLAR>
0

>  <SCORE.INTRA.POLAR.0>
0

>  <SCORE.INTRA.REPUL>
0

>  <SCORE.INTRA.REPUL.0>
0

>  <SCORE.INTRA.SOLV>
0

>  <SCORE.INTRA.SOLV.lig_0>
-48.1583

>  <SCORE.INTRA.VDW>
0

>  <SCORE.INTRA.VDW.0>
0

>  <SCORE.INTRA.norm>
0

>  <SCORE.RESTR>
0

>  <SCORE.RESTR.CAVITY>
0

>  <SCORE.RESTR.norm>
0

>  <SCORE.SYSTEM>
0

>  <SCORE.SYSTEM.CONST>
0

>  <SCORE.SYSTEM.DIHEDRAL>
0

>  <SCORE.SYSTEM.SOLV>
0

>  <SCORE.SYSTEM.norm>
0

>  <SCORE.heavy>
12

>  <SCORE.norm>
-0.8501

>  <RMSD>
26.878

$$$$
ligand
 OpenBabel02271912143D
libRbt.so/2013.1/901 2013/11/27
 12 13  0  0  0  0  0  0  0  0999 V2000
  -16.8409   31.7684   -3.6393 C   0  0  0  0  0  0  0  0  0  0  0  0
  -14.9301   30.4832   -4.0024 C   0  0  0  0  0  0  0  0  0  0  0  0
  -17.3854   32.9562   -3.3913 N   0  0  0  0  0  0  0  0  0  0  0  0
  -13.6040   30.3308   -4.0874 N   0  0  0  0  0  0  0  0  0  0  0  0
  -15.4968   31.6657   -3.7282 N   0  0  0  0  0  0  0  0  0  0  0  0
  -17.6380   30.6928   -3.8248 N   0  0  0  0  0  0  0  0  0  0  0  0
  -15.9732   26.9932   -4.6347 N   0  0  0  0  0  0  0  0  0  0  0  0
  -17.3657   27.1395   -4.5404 C   0  0  0  0  0  0  0  0  0  0  0  0
  -17.9259   28.4062   -4.2537 N   0  0  0  0  0  0  0  0  0  0  0  0
  -17.1118   29.4719   -4.0938 C   0  0  0  0  0  0  0  0  0  0  0  0
  -15.7227   29.3451   -4.1960 C   0  0  0  0  0  0  0  0  0  0  0  0
  -15.1329   28.1116   -4.4661 C   0  0  0  0  0  0  0  0  0  0  0  0
  1  3  1  0  0  0  0
  1  5  1  0  0  0  0
  1  6  2  0  0  0  0
  2  5  2  0  0  0  0
  2 11  1  0  0  0  0
  2  4  1  0  0  0  0
  6 10  1  0  0  0  0
  7  8  2  0  0  0  0
  7 12  1  0  0  0  0
  8  9  1  0  0  0  0
  9 10  2  0  0  0  0
 10 11  1  0  0  0  0
 11 12  2  0  0  0  0
M  END
>  <CHROM.1>
-16.26648951,29.81059737,-4.06499618,1.56492379,0.04853518,0.19594161

>  <Name>
ligand

>  <RI>
0

>  <Rbt.Current_Directory>
/home/itssahil/PROJECTS/Mol_Feturizer/Test_systems_manuscript/rnas/4lx5

>  <Rbt.Executable>
rbdock ($Id: //depot/dev/client3/rdock/2013.1/src/exe/rbdock.cxx#4 $)

>  <Rbt.Library>
libRbt.so (2013.1, Build901 2013/11/27)

>  <Rbt.Parameter_File>
/export/apps/rDock/src/rDock_2013.1_src/data/scripts/dock_solv.prm

>  <Rbt.Receptor>
prm/blind_docking_100.prm

>  <SCORE>
-10.2013

>  <SCORE.INTER>
-10.2013

>  <SCORE.INTER.CONST>
1

>  <SCORE.INTER.POLAR>
0

>  <SCORE.INTER.ROT>
0

>  <SCORE.INTER.SOLV>
7.47152

>  <SCORE.INTER.VDW>
-12.8914

>  <SCORE.INTER.norm>
-0.850106

>  <SCORE.INTRA>
0

>  <SCORE.INTRA.DIHEDRAL>
0

>  <SCORE.INTRA.DIHEDRAL.0>
0

>  <SCORE.INTRA.POLAR>
0

>  <SCORE.INTRA.POLAR.0>
0

>  <SCORE.INTRA.REPUL>
0

>  <SCORE.INTRA.REPUL.0>
0

>  <SCORE.INTRA.SOLV>
0

>  <SCORE.INTRA.SOLV.lig_0>
-48.1583

>  <SCORE.INTRA.VDW>
0

>  <SCORE.INTRA.VDW.0>
0

>  <SCORE.INTRA.norm>
0

>  <SCORE.RESTR>
0

>  <SCORE.RESTR.CAVITY>
0

>  <SCORE.RESTR.norm>
0

>  <SCORE.SYSTEM>
0

>  <SCORE.SYSTEM.CONST>
0

>  <SCORE.SYSTEM.DIHEDRAL>
0

>  <SCORE.SYSTEM.SOLV>
0

>  <SCORE.SYSTEM.norm>
0

>  <SCORE.heavy>
12

>  <SCORE.norm>
-0.850106

>  <RMSD>
26.880

$$$$
ligand
 OpenBabel02271912143D
libRbt.so/2013.1/901 2013/11/27
 12 13  0  0  0  0  0  0  0  0999 V2000
  -16.8353   31.7650   -3.6366 C   0  0  0  0  0  0  0  0  0  0  0  0
  -14.9307   30.4725   -4.0063 C   0  0  0  0  0  0  0  0  0  0  0  0
  -17.3743   32.9550   -3.3870 N   0  0  0  0  0  0  0  0  0  0  0  0
  -13.6055   30.3151   -4.0962 N   0  0  0  0  0  0  0  0  0  0  0  0
  -15.4919   31.6572   -3.7305 N   0  0  0  0  0  0  0  0  0  0  0  0
  -17.6371   30.6924   -3.8186 N   0  0  0  0  0  0  0  0  0  0  0  0
  -15.9892   26.9862   -4.6333 N   0  0  0  0  0  0  0  0  0  0  0  0
  -17.3808   27.1377   -4.5338 C   0  0  0  0  0  0  0  0  0  0  0  0
  -17.9351   28.4067   -4.2455 N   0  0  0  0  0  0  0  0  0  0  0  0
  -17.1164   29.4694   -4.0891 C   0  0  0  0  0  0  0  0  0  0  0  0
  -15.7282   29.3373   -4.1965 C   0  0  0  0  0  0  0  0  0  0  0  0
  -15.1441   28.1015   -4.4683 C   0  0  0  0  0  0  0  0  0  0  0  0
  1  3  1  0  0  0  0
  1  5  1  0  0  0  0
  1  6  2  0  0  0  0
  2  5  2  0  0  0  0
  2 11  1  0  0  0  0
  2  4  1  0  0  0  0
  6 10  1  0  0  0  0
  7  8  2  0  0  0  0
  7 12  1  0  0  0  0
  8  9  1  0  0  0  0
  9 10  2  0  0  0  0
 10 11  1  0  0  0  0
 11 12  2  0  0  0  0
M  END
>  <CHROM.1>
-16.26978669,29.80490191,-4.06363583,1.56050671,0.05149663,0.19576363

>  <Name>
ligand

>  <RI>
0

>  <Rbt.Current_Directory>
/home/itssahil/PROJECTS/Mol_Feturizer/Test_systems_manuscript/rnas/4lx5

>  <Rbt.Executable>
rbdock ($Id: //depot/dev/client3/rdock/2013.1/src/exe/rbdock.cxx#4 $)

>  <Rbt.Library>
libRbt.so (2013.1, Build901 2013/11/27)

>  <Rbt.Parameter_File>
/export/apps/rDock/src/rDock_2013.1_src/data/scripts/dock_solv.prm

>  <Rbt.Receptor>
prm/blind_docking_60.prm

>  <SCORE>
-10.1992

>  <SCORE.INTER>
-10.1992

>  <SCORE.INTER.CONST>
1

>  <SCORE.INTER.POLAR>
0

>  <SCORE.INTER.ROT>
0

>  <SCORE.INTER.SOLV>
7.46215

>  <SCORE.INTER.VDW>
-12.8868

>  <SCORE.INTER.norm>
-0.849931

>  <SCORE.INTRA>
0

>  <SCORE.INTRA.DIHEDRAL>
0

>  <SCORE.INTRA.DIHEDRAL.0>
0

>  <SCORE.INTRA.POLAR>
0

>  <SCORE.INTRA.POLAR.0>
0

>  <SCORE.INTRA.REPUL>
0

>  <SCORE.INTRA.REPUL.0>
0

>  <SCORE.INTRA.SOLV>
0

>  <SCORE.INTRA.SOLV.lig_0>
-48.1583

>  <SCORE.INTRA.VDW>
0

>  <SCORE.INTRA.VDW.0>
0

>  <SCORE.INTRA.norm>
0

>  <SCORE.RESTR>
0

>  <SCORE.RESTR.CAVITY>
0

>  <SCORE.RESTR.norm>
0

>  <SCORE.SYSTEM>
0

>  <SCORE.SYSTEM.CONST>
0

>  <SCORE.SYSTEM.DIHEDRAL>
0

>  <SCORE.SYSTEM.SOLV>
0

>  <SCORE.SYSTEM.norm>
0

>  <SCORE.heavy>
12

>  <SCORE.norm>
-0.849931

>  <RMSD>
26.880

$$$$
ligand
 OpenBabel02271912143D
libRbt.so/2013.1/901 2013/11/27
 12 13  0  0  0  0  0  0  0  0999 V2000
  -16.8430   31.7706   -3.6385 C   0  0  0  0  0  0  0  0  0  0  0  0
  -14.9306   30.4879   -4.0023 C   0  0  0  0  0  0  0  0  0  0  0  0
  -17.3890   32.9577   -3.3905 N   0  0  0  0  0  0  0  0  0  0  0  0
  -13.6043   30.3374   -4.0879 N   0  0  0  0  0  0  0  0  0  0  0  0
  -15.4988   31.6697   -3.7281 N   0  0  0  0  0  0  0  0  0  0  0  0
  -17.6387   30.6938   -3.8232 N   0  0  0  0  0  0  0  0  0  0  0  0
  -15.9692   26.9963   -4.6329 N   0  0  0  0  0  0  0  0  0  0  0  0
  -17.3619   27.1406   -4.5378 C   0  0  0  0  0  0  0  0  0  0  0  0
  -17.9236   28.4067   -4.2512 N   0  0  0  0  0  0  0  0  0  0  0  0
  -17.1109   29.4736   -4.0921 C   0  0  0  0  0  0  0  0  0  0  0  0
  -15.7217   29.3486   -4.1951 C   0  0  0  0  0  0  0  0  0  0  0  0
  -15.1304   28.1159   -4.4651 C   0  0  0  0  0  0  0  0  0  0  0  0
  1  3  1  0  0  0  0
  1  5  1  0  0  0  0
  1  6  2  0  0  0  0
  2  5  2  0  0  0  0
  2 11  1  0  0  0  0
  2  4  1  0  0  0  0
  6 10  1  0  0  0  0
  7  8  2  0  0  0  0
  7 12  1  0  0  0  0
  8  9  1  0  0  0  0
  9 10  2  0  0  0  0
 10 11  1  0  0  0  0
 11 12  2  0  0  0  0
M  END
>  <CHROM.1>
-16.26610035,29.81343283,-4.06387924,1.56617569,0.04935587,0.19555984

>  <Name>
ligand

>  <RI>
0

>  <Rbt.Current_Directory>
/home/itssahil/PROJECTS/Mol_Feturizer/Test_systems_manuscript/rnas/4lx5

>  <Rbt.Executable>
rbdock ($Id: //depot/dev/client3/rdock/2013.1/src/exe/rbdock.cxx#4 $)

>  <Rbt.Library>
libRbt.so (2013.1, Build901 2013/11/27)

>  <Rbt.Parameter_File>
/export/apps/rDock/src/rDock_2013.1_src/data/scripts/dock_solv.prm

>  <Rbt.Receptor>
prm/blind_docking_100.prm

>  <SCORE>
-10.2016

>  <SCORE.INTER>
-10.2016

>  <SCORE.INTER.CONST>
1

>  <SCORE.INTER.POLAR>
0

>  <SCORE.INTER.ROT>
0

>  <SCORE.INTER.SOLV>
7.48844

>  <SCORE.INTER.VDW>
-12.8972

>  <SCORE.INTER.norm>
-0.850134

>  <SCORE.INTRA>
0

>  <SCORE.INTRA.DIHEDRAL>
0

>  <SCORE.INTRA.DIHEDRAL.0>
0

>  <SCORE.INTRA.POLAR>
0

>  <SCORE.INTRA.POLAR.0>
0

>  <SCORE.INTRA.REPUL>
0

>  <SCORE.INTRA.REPUL.0>
0

>  <SCORE.INTRA.SOLV>
0

>  <SCORE.INTRA.SOLV.lig_0>
-48.1583

>  <SCORE.INTRA.VDW>
0

>  <SCORE.INTRA.VDW.0>
0

>  <SCORE.INTRA.norm>
0

>  <SCORE.RESTR>
0

>  <SCORE.RESTR.CAVITY>
0

>  <SCORE.RESTR.norm>
0

>  <SCORE.SYSTEM>
0

>  <SCORE.SYSTEM.CONST>
0

>  <SCORE.SYSTEM.DIHEDRAL>
0

>  <SCORE.SYSTEM.SOLV>
0

>  <SCORE.SYSTEM.norm>
0

>  <SCORE.heavy>
12

>  <SCORE.norm>
-0.850134

>  <RMSD>
26.881

$$$$
ligand
 OpenBabel02271912143D
libRbt.so/2013.1/901 2013/11/27
 12 13  0  0  0  0  0  0  0  0999 V2000
  -16.8380   31.7664   -3.6364 C   0  0  0  0  0  0  0  0  0  0  0  0
  -14.9294   30.4815   -4.0121 C   0  0  0  0  0  0  0  0  0  0  0  0
  -17.3809   32.9537   -3.3823 N   0  0  0  0  0  0  0  0  0  0  0  0
  -13.6038   30.3289   -4.1035 N   0  0  0  0  0  0  0  0  0  0  0  0
  -15.4944   31.6634   -3.7317 N   0  0  0  0  0  0  0  0  0  0  0  0
  -17.6364   30.6917   -3.8216 N   0  0  0  0  0  0  0  0  0  0  0  0
  -15.9768   26.9939   -4.6503 N   0  0  0  0  0  0  0  0  0  0  0  0
  -17.3688   27.1404   -4.5492 C   0  0  0  0  0  0  0  0  0  0  0  0
  -17.9271   28.4065   -4.2561 N   0  0  0  0  0  0  0  0  0  0  0  0
  -17.1119   29.4714   -4.0967 C   0  0  0  0  0  0  0  0  0  0  0  0
  -15.7234   29.3443   -4.2056 C   0  0  0  0  0  0  0  0  0  0  0  0
  -15.1353   28.1114   -4.4820 C   0  0  0  0  0  0  0  0  0  0  0  0
  1  3  1  0  0  0  0
  1  5  1  0  0  0  0
  1  6  2  0  0  0  0
  2  5  2  0  0  0  0
  2 11  1  0  0  0  0
  2  4  1  0  0  0  0
  6 10  1  0  0  0  0
  7  8  2  0  0  0  0
  7 12  1  0  0  0  0
  8  9  1  0  0  0  0
  9 10  2  0  0  0  0
 10 11  1  0  0  0  0
 11 12  2  0  0  0  0
M  END
>  <CHROM.1>
-16.26634902,29.80963980,-4.07066199,1.56363837,0.05288040,0.19903727

>  <Name>
ligand

>  <RI>
0

>  <Rbt.Current_Directory>
/home/itssahil/PROJECTS/Mol_Feturizer/Test_systems_manuscript/rnas/4lx5

>  <Rbt.Executable>
rbdock ($Id: //depot/dev/client3/rdock/2013.1/src/exe/rbdock.cxx#4 $)

>  <Rbt.Library>
libRbt.so (2013.1, Build901 2013/11/27)

>  <Rbt.Parameter_File>
/export/apps/rDock/src/rDock_2013.1_src/data/scripts/dock_solv.prm

>  <Rbt.Receptor>
prm/blind_docking_40.prm

>  <SCORE>
-10.1954

>  <SCORE.INTER>
-10.1954

>  <SCORE.INTER.CONST>
1

>  <SCORE.INTER.POLAR>
0

>  <SCORE.INTER.ROT>
0

>  <SCORE.INTER.SOLV>
7.4979

>  <SCORE.INTER.VDW>
-12.8963

>  <SCORE.INTER.norm>
-0.849619

>  <SCORE.INTRA>
0

>  <SCORE.INTRA.DIHEDRAL>
0

>  <SCORE.INTRA.DIHEDRAL.0>
0

>  <SCORE.INTRA.POLAR>
0

>  <SCORE.INTRA.POLAR.0>
0

>  <SCORE.INTRA.REPUL>
0

>  <SCORE.INTRA.REPUL.0>
0

>  <SCORE.INTRA.SOLV>
0

>  <SCORE.INTRA.SOLV.lig_0>
-48.1583

>  <SCORE.INTRA.VDW>
0

>  <SCORE.INTRA.VDW.0>
0

>  <SCORE.INTRA.norm>
0

>  <SCORE.RESTR>
0

>  <SCORE.RESTR.CAVITY>
0

>  <SCORE.RESTR.norm>
0

>  <SCORE.SYSTEM>
0

>  <SCORE.SYSTEM.CONST>
0

>  <SCORE.SYSTEM.DIHEDRAL>
0

>  <SCORE.SYSTEM.SOLV>
0

>  <SCORE.SYSTEM.norm>
0

>  <SCORE.heavy>
12

>  <SCORE.norm>
-0.849619

>  <RMSD>
26.882

$$$$
ligand
 OpenBabel02271912143D
libRbt.so/2013.1/901 2013/11/27
 12 13  0  0  0  0  0  0  0  0999 V2000
  -16.8369   31.7625   -3.6375 C   0  0  0  0  0  0  0  0  0  0  0  0
  -14.9326   30.4759   -4.0288 C   0  0  0  0  0  0  0  0  0  0  0  0
  -17.3767   32.9508   -3.3819 N   0  0  0  0  0  0  0  0  0  0  0  0
  -13.6080   30.3227   -4.1337 N   0  0  0  0  0  0  0  0  0  0  0  0
  -15.4943   31.6589   -3.7466 N   0  0  0  0  0  0  0  0  0  0  0  0
  -17.6373   30.6873   -3.8105 N   0  0  0  0  0  0  0  0  0  0  0  0
  -15.9872   26.9863   -4.6436 N   0  0  0  0  0  0  0  0  0  0  0  0
  -17.3781   27.1335   -4.5283 C   0  0  0  0  0  0  0  0  0  0  0  0
  -17.9331   28.4007   -4.2338 N   0  0  0  0  0  0  0  0  0  0  0  0
  -17.1160   29.4660   -4.0868 C   0  0  0  0  0  0  0  0  0  0  0  0
  -15.7287   29.3382   -4.2099 C   0  0  0  0  0  0  0  0  0  0  0  0
  -15.1439   28.1042   -4.4882 C   0  0  0  0  0  0  0  0  0  0  0  0
  1  3  1  0  0  0  0
  1  5  1  0  0  0  0
  1  6  2  0  0  0  0
  2  5  2  0  0  0  0
  2 11  1  0  0  0  0
  2  4  1  0  0  0  0
  6 10  1  0  0  0  0
  7  8  2  0  0  0  0
  7 12  1  0  0  0  0
  8  9  1  0  0  0  0
  9 10  2  0  0  0  0
 10 11  1  0  0  0  0
 11 12  2  0  0  0  0
M  END
>  <CHROM.1>
-16.27014364,29.80412106,-4.07089731,1.56135879,0.06322621,0.19565778

>  <Name>
ligand

>  <RI>
0

>  <Rbt.Current_Directory>
/home/itssahil/PROJECTS/Mol_Feturizer/Test_systems_manuscript/rnas/4lx5

>  <Rbt.Executable>
rbdock ($Id: //depot/dev/client3/rdock/2013.1/src/exe/rbdock.cxx#4 $)

>  <Rbt.Library>
libRbt.so (2013.1, Build901 2013/11/27)

>  <Rbt.Parameter_File>
/export/apps/rDock/src/rDock_2013.1_src/data/scripts/dock_solv.prm

>  <Rbt.Receptor>
prm/blind_docking_80.prm

>  <SCORE>
-10.1896

>  <SCORE.INTER>
-10.1896

>  <SCORE.INTER.CONST>
1

>  <SCORE.INTER.POLAR>
0

>  <SCORE.INTER.ROT>
0

>  <SCORE.INTER.SOLV>
7.55724

>  <SCORE.INTER.VDW>
-12.9122

>  <SCORE.INTER.norm>
-0.849136

>  <SCORE.INTRA>
0

>  <SCORE.INTRA.DIHEDRAL>
0

>  <SCORE.INTRA.DIHEDRAL.0>
0

>  <SCORE.INTRA.POLAR>
0

>  <SCORE.INTRA.POLAR.0>
0

>  <SCORE.INTRA.REPUL>
0

>  <SCORE.INTRA.REPUL.0>
0

>  <SCORE.INTRA.SOLV>
0

>  <SCORE.INTRA.SOLV.lig_0>
-48.1583

>  <SCORE.INTRA.VDW>
0

>  <SCORE.INTRA.VDW.0>
0

>  <SCORE.INTRA.norm>
0

>  <SCORE.RESTR>
0

>  <SCORE.RESTR.CAVITY>
0

>  <SCORE.RESTR.norm>
0

>  <SCORE.SYSTEM>
0

>  <SCORE.SYSTEM.CONST>
0

>  <SCORE.SYSTEM.DIHEDRAL>
0

>  <SCORE.SYSTEM.SOLV>
0

>  <SCORE.SYSTEM.norm>
0

>  <SCORE.heavy>
12

>  <SCORE.norm>
-0.849136

>  <RMSD>
26.882

$$$$
ligand
 OpenBabel02271912143D
libRbt.so/2013.1/901 2013/11/27
 12 13  0  0  0  0  0  0  0  0999 V2000
  -16.8399   31.7720   -3.6407 C   0  0  0  0  0  0  0  0  0  0  0  0
  -14.9358   30.4771   -4.0054 C   0  0  0  0  0  0  0  0  0  0  0  0
  -17.3786   32.9635   -3.3981 N   0  0  0  0  0  0  0  0  0  0  0  0
  -13.6108   30.3193   -4.0966 N   0  0  0  0  0  0  0  0  0  0  0  0
  -15.4966   31.6637   -3.7364 N   0  0  0  0  0  0  0  0  0  0  0  0
  -17.6419   30.6980   -3.8141 N   0  0  0  0  0  0  0  0  0  0  0  0
  -15.9951   26.9866   -4.6070 N   0  0  0  0  0  0  0  0  0  0  0  0
  -17.3866   27.1387   -4.5059 C   0  0  0  0  0  0  0  0  0  0  0  0
  -17.9405   28.4095   -4.2251 N   0  0  0  0  0  0  0  0  0  0  0  0
  -17.1217   29.4733   -4.0774 C   0  0  0  0  0  0  0  0  0  0  0  0
  -15.7336   29.3406   -4.1864 C   0  0  0  0  0  0  0  0  0  0  0  0
  -15.1499   28.1031   -4.4510 C   0  0  0  0  0  0  0  0  0  0  0  0
  1  3  1  0  0  0  0
  1  5  1  0  0  0  0
  1  6  2  0  0  0  0
  2  5  2  0  0  0  0
  2 11  1  0  0  0  0
  2  4  1  0  0  0  0
  6 10  1  0  0  0  0
  7  8  2  0  0  0  0
  7 12  1  0  0  0  0
  8  9  1  0  0  0  0
  9 10  2  0  0  0  0
 10 11  1  0  0  0  0
 11 12  2  0  0  0  0
M  END
>  <CHROM.1>
-16.27497623,29.80906016,-4.05569150,1.56024355,0.05332895,0.18906622

>  <Name>
ligand

>  <RI>
0

>  <Rbt.Current_Directory>
/home/itssahil/PROJECTS/Mol_Feturizer/Test_systems_manuscript/rnas/4lx5

>  <Rbt.Executable>
rbdock ($Id: //depot/dev/client3/rdock/2013.1/src/exe/rbdock.cxx#4 $)

>  <Rbt.Library>
libRbt.so (2013.1, Build901 2013/11/27)

>  <Rbt.Parameter_File>
/export/apps/rDock/src/rDock_2013.1_src/data/scripts/dock_solv.prm

>  <Rbt.Receptor>
prm/blind_docking_100.prm

>  <SCORE>
-10.153

>  <SCORE.INTER>
-10.153

>  <SCORE.INTER.CONST>
1

>  <SCORE.INTER.POLAR>
0

>  <SCORE.INTER.ROT>
0

>  <SCORE.INTER.SOLV>
7.48397

>  <SCORE.INTER.VDW>
-12.8633

>  <SCORE.INTER.norm>
-0.84608

>  <SCORE.INTRA>
0

>  <SCORE.INTRA.DIHEDRAL>
0

>  <SCORE.INTRA.DIHEDRAL.0>
0

>  <SCORE.INTRA.POLAR>
0

>  <SCORE.INTRA.POLAR.0>
0

>  <SCORE.INTRA.REPUL>
0

>  <SCORE.INTRA.REPUL.0>
0

>  <SCORE.INTRA.SOLV>
0

>  <SCORE.INTRA.SOLV.lig_0>
-48.1583

>  <SCORE.INTRA.VDW>
0

>  <SCORE.INTRA.VDW.0>
0

>  <SCORE.INTRA.norm>
0

>  <SCORE.RESTR>
0

>  <SCORE.RESTR.CAVITY>
0

>  <SCORE.RESTR.norm>
0

>  <SCORE.SYSTEM>
0

>  <SCORE.SYSTEM.CONST>
0

>  <SCORE.SYSTEM.DIHEDRAL>
0

>  <SCORE.SYSTEM.SOLV>
0

>  <SCORE.SYSTEM.norm>
0

>  <SCORE.heavy>
12

>  <SCORE.norm>
-0.84608

>  <RMSD>
26.883

$$$$
ligand
 OpenBabel02271912143D
libRbt.so/2013.1/901 2013/11/27
 12 13  0  0  0  0  0  0  0  0999 V2000
  -16.8446   31.7699   -3.6399 C   0  0  0  0  0  0  0  0  0  0  0  0
  -14.9325   30.4863   -4.0020 C   0  0  0  0  0  0  0  0  0  0  0  0
  -17.3900   32.9570   -3.3906 N   0  0  0  0  0  0  0  0  0  0  0  0
  -13.6061   30.3348   -4.0849 N   0  0  0  0  0  0  0  0  0  0  0  0
  -15.5002   31.6680   -3.7266 N   0  0  0  0  0  0  0  0  0  0  0  0
  -17.6408   30.6943   -3.8289 N   0  0  0  0  0  0  0  0  0  0  0  0
  -15.9727   26.9970   -4.6429 N   0  0  0  0  0  0  0  0  0  0  0  0
  -17.3655   27.1424   -4.5507 C   0  0  0  0  0  0  0  0  0  0  0  0
  -17.9268   28.4084   -4.2626 N   0  0  0  0  0  0  0  0  0  0  0  0
  -17.1135   29.4742   -4.0992 C   0  0  0  0  0  0  0  0  0  0  0  0
  -15.7242   29.3482   -4.1992 C   0  0  0  0  0  0  0  0  0  0  0  0
  -15.1333   28.1155   -4.4706 C   0  0  0  0  0  0  0  0  0  0  0  0
  1  3  1  0  0  0  0
  1  5  1  0  0  0  0
  1  6  2  0  0  0  0
  2  5  2  0  0  0  0
  2 11  1  0  0  0  0
  2  4  1  0  0  0  0
  6 10  1  0  0  0  0
  7  8  2  0  0  0  0
  7 12  1  0  0  0  0
  8  9  1  0  0  0  0
  9 10  2  0  0  0  0
 10 11  1  0  0  0  0
 11 12  2  0  0  0  0
M  END
>  <CHROM.1>
-16.26840706,29.81319411,-4.06829233,1.56574896,0.04688248,0.19779877

>  <Name>
ligand

>  <RI>
0

>  <Rbt.Current_Directory>
/home/itssahil/PROJECTS/Mol_Feturizer/Test_systems_manuscript/rnas/4lx5

>  <Rbt.Executable>
rbdock ($Id: //depot/dev/client3/rdock/2013.1/src/exe/rbdock.cxx#4 $)

>  <Rbt.Library>
libRbt.so (2013.1, Build901 2013/11/27)

>  <Rbt.Parameter_File>
/export/apps/rDock/src/rDock_2013.1_src/data/scripts/dock_solv.prm

>  <Rbt.Receptor>
prm/blind_docking_80.prm

>  <SCORE>
-10.1985

>  <SCORE.INTER>
-10.1985

>  <SCORE.INTER.CONST>
1

>  <SCORE.INTER.POLAR>
0

>  <SCORE.INTER.ROT>
0

>  <SCORE.INTER.SOLV>
7.47246

>  <SCORE.INTER.VDW>
-12.8898

>  <SCORE.INTER.norm>
-0.849873

>  <SCORE.INTRA>
0

>  <SCORE.INTRA.DIHEDRAL>
0

>  <SCORE.INTRA.DIHEDRAL.0>
0

>  <SCORE.INTRA.POLAR>
0

>  <SCORE.INTRA.POLAR.0>
0

>  <SCORE.INTRA.REPUL>
0

>  <SCORE.INTRA.REPUL.0>
0

>  <SCORE.INTRA.SOLV>
0

>  <SCORE.INTRA.SOLV.lig_0>
-48.1583

>  <SCORE.INTRA.VDW>
0

>  <SCORE.INTRA.VDW.0>
0

>  <SCORE.INTRA.norm>
0

>  <SCORE.RESTR>
0

>  <SCORE.RESTR.CAVITY>
0

>  <SCORE.RESTR.norm>
0

>  <SCORE.SYSTEM>
0

>  <SCORE.SYSTEM.CONST>
0

>  <SCORE.SYSTEM.DIHEDRAL>
0

>  <SCORE.SYSTEM.SOLV>
0

>  <SCORE.SYSTEM.norm>
0

>  <SCORE.heavy>
12

>  <SCORE.norm>
-0.849873

>  <RMSD>
26.884

$$$$
ligand
 OpenBabel02271912143D
libRbt.so/2013.1/901 2013/11/27
 12 13  0  0  0  0  0  0  0  0999 V2000
  -16.8899   31.7581   -3.6503 C   0  0  0  0  0  0  0  0  0  0  0  0
  -14.9588   30.5023   -4.0091 C   0  0  0  0  0  0  0  0  0  0  0  0
  -17.4533   32.9379   -3.4064 N   0  0  0  0  0  0  0  0  0  0  0  0
  -13.6304   30.3709   -4.0935 N   0  0  0  0  0  0  0  0  0  0  0  0
  -15.5443   31.6766   -3.7389 N   0  0  0  0  0  0  0  0  0  0  0  0
  -17.6697   30.6693   -3.8322 N   0  0  0  0  0  0  0  0  0  0  0  0
  -15.9459   26.9940   -4.6294 N   0  0  0  0  0  0  0  0  0  0  0  0
  -17.3406   27.1183   -4.5355 C   0  0  0  0  0  0  0  0  0  0  0  0
  -17.9210   28.3769   -4.2532 N   0  0  0  0  0  0  0  0  0  0  0  0
  -17.1240   29.4560   -4.0970 C   0  0  0  0  0  0  0  0  0  0  0  0
  -15.7331   29.3510   -4.1988 C   0  0  0  0  0  0  0  0  0  0  0  0
  -15.1237   28.1262   -4.4646 C   0  0  0  0  0  0  0  0  0  0  0  0
  1  3  1  0  0  0  0
  1  5  1  0  0  0  0
  1  6  2  0  0  0  0
  2  5  2  0  0  0  0
  2 11  1  0  0  0  0
  2  4  1  0  0  0  0
  6 10  1  0  0  0  0
  7  8  2  0  0  0  0
  7 12  1  0  0  0  0
  8  9  1  0  0  0  0
  9 10  2  0  0  0  0
 10 11  1  0  0  0  0
 11 12  2  0  0  0  0
M  END
>  <CHROM.1>
-16.28423621,29.80826076,-4.06932905,1.58062182,0.05159940,0.19172163

>  <Name>
ligand

>  <RI>
0

>  <Rbt.Current_Directory>
/home/itssahil/PROJECTS/Mol_Feturizer/Test_systems_manuscript/rnas/4lx5

>  <Rbt.Executable>
rbdock ($Id: //depot/dev/client3/rdock/2013.1/src/exe/rbdock.cxx#4 $)

>  <Rbt.Library>
libRbt.so (2013.1, Build901 2013/11/27)

>  <Rbt.Parameter_File>
/export/apps/rDock/src/rDock_2013.1_src/data/scripts/dock_solv.prm

>  <Rbt.Receptor>
prm/blind_docking_100.prm

>  <SCORE>
-10.2026

>  <SCORE.INTER>
-10.2026

>  <SCORE.INTER.CONST>
1

>  <SCORE.INTER.POLAR>
0

>  <SCORE.INTER.ROT>
0

>  <SCORE.INTER.SOLV>
7.65677

>  <SCORE.INTER.VDW>
-12.954

>  <SCORE.INTER.norm>
-0.850217

>  <SCORE.INTRA>
0

>  <SCORE.INTRA.DIHEDRAL>
0

>  <SCORE.INTRA.DIHEDRAL.0>
0

>  <SCORE.INTRA.POLAR>
0

>  <SCORE.INTRA.POLAR.0>
0

>  <SCORE.INTRA.REPUL>
0

>  <SCORE.INTRA.REPUL.0>
0

>  <SCORE.INTRA.SOLV>
0

>  <SCORE.INTRA.SOLV.lig_0>
-48.1583

>  <SCORE.INTRA.VDW>
0

>  <SCORE.INTRA.VDW.0>
0

>  <SCORE.INTRA.norm>
0

>  <SCORE.RESTR>
0

>  <SCORE.RESTR.CAVITY>
0

>  <SCORE.RESTR.norm>
0

>  <SCORE.SYSTEM>
0

>  <SCORE.SYSTEM.CONST>
0

>  <SCORE.SYSTEM.DIHEDRAL>
0

>  <SCORE.SYSTEM.SOLV>
0

>  <SCORE.SYSTEM.norm>
0

>  <SCORE.heavy>
12

>  <SCORE.norm>
-0.850217

>  <RMSD>
26.896

$$$$
ligand
 OpenBabel02271912143D
libRbt.so/2013.1/901 2013/11/27
 12 13  0  0  0  0  0  0  0  0999 V2000
  -16.8317   31.7676   -3.6341 C   0  0  0  0  0  0  0  0  0  0  0  0
  -14.9414   30.4639   -4.0368 C   0  0  0  0  0  0  0  0  0  0  0  0
  -17.3591   32.9605   -3.3739 N   0  0  0  0  0  0  0  0  0  0  0  0
  -13.6189   30.2984   -4.1483 N   0  0  0  0  0  0  0  0  0  0  0  0
  -15.4907   31.6516   -3.7499 N   0  0  0  0  0  0  0  0  0  0  0  0
  -17.6430   30.7003   -3.8050 N   0  0  0  0  0  0  0  0  0  0  0  0
  -16.0318   26.9854   -4.6524 N   0  0  0  0  0  0  0  0  0  0  0  0
  -17.4207   27.1454   -4.5302 C   0  0  0  0  0  0  0  0  0  0  0  0
  -17.9623   28.4173   -4.2309 N   0  0  0  0  0  0  0  0  0  0  0  0
  -17.1345   29.4746   -4.0859 C   0  0  0  0  0  0  0  0  0  0  0  0
  -15.7491   29.3340   -4.2159 C   0  0  0  0  0  0  0  0  0  0  0  0
  -15.1772   28.0951   -4.4992 C   0  0  0  0  0  0  0  0  0  0  0  0
  1  3  1  0  0  0  0
  1  5  1  0  0  0  0
  1  6  2  0  0  0  0
  2  5  2  0  0  0  0
  2 11  1  0  0  0  0
  2  4  1  0  0  0  0
  6 10  1  0  0  0  0
  7  8  2  0  0  0  0
  7 12  1  0  0  0  0
  8  9  1  0  0  0  0
  9 10  2  0  0  0  0
 10 11  1  0  0  0  0
 11 12  2  0  0  0  0
M  END
>  <CHROM.1>
-16.28547473,29.80477862,-4.07353643,1.55118839,0.06609705,0.19802671

>  <Name>
ligand

>  <RI>
0

>  <Rbt.Current_Directory>
/home/itssahil/PROJECTS/Mol_Feturizer/Test_systems_manuscript/rnas/4lx5

>  <Rbt.Executable>
rbdock ($Id: //depot/dev/client3/rdock/2013.1/src/exe/rbdock.cxx#4 $)

>  <Rbt.Library>
libRbt.so (2013.1, Build901 2013/11/27)

>  <Rbt.Parameter_File>
/export/apps/rDock/src/rDock_2013.1_src/data/scripts/dock_solv.prm

>  <Rbt.Receptor>
prm/blind_docking_60.prm

>  <SCORE>
-10.167

>  <SCORE.INTER>
-10.167

>  <SCORE.INTER.CONST>
1

>  <SCORE.INTER.POLAR>
0

>  <SCORE.INTER.ROT>
0

>  <SCORE.INTER.SOLV>
7.53217

>  <SCORE.INTER.VDW>
-12.8887

>  <SCORE.INTER.norm>
-0.847248

>  <SCORE.INTRA>
0

>  <SCORE.INTRA.DIHEDRAL>
0

>  <SCORE.INTRA.DIHEDRAL.0>
0

>  <SCORE.INTRA.POLAR>
0

>  <SCORE.INTRA.POLAR.0>
0

>  <SCORE.INTRA.REPUL>
0

>  <SCORE.INTRA.REPUL.0>
0

>  <SCORE.INTRA.SOLV>
0

>  <SCORE.INTRA.SOLV.lig_0>
-48.1583

>  <SCORE.INTRA.VDW>
0

>  <SCORE.INTRA.VDW.0>
0

>  <SCORE.INTRA.norm>
0

>  <SCORE.RESTR>
0

>  <SCORE.RESTR.CAVITY>
0

>  <SCORE.RESTR.norm>
0

>  <SCORE.SYSTEM>
0

>  <SCORE.SYSTEM.CONST>
0

>  <SCORE.SYSTEM.DIHEDRAL>
0

>  <SCORE.SYSTEM.SOLV>
0

>  <SCORE.SYSTEM.norm>
0

>  <SCORE.heavy>
12

>  <SCORE.norm>
-0.847248

>  <RMSD>
26.896

$$$$
ligand
 OpenBabel02271912143D
libRbt.so/2013.1/901 2013/11/27
 12 13  0  0  0  0  0  0  0  0999 V2000
  -16.8918   31.7567   -3.6529 C   0  0  0  0  0  0  0  0  0  0  0  0
  -14.9589   30.5032   -4.0101 C   0  0  0  0  0  0  0  0  0  0  0  0
  -17.4565   32.9354   -3.4069 N   0  0  0  0  0  0  0  0  0  0  0  0
  -13.6302   30.3728   -4.0912 N   0  0  0  0  0  0  0  0  0  0  0  0
  -15.5459   31.6762   -3.7379 N   0  0  0  0  0  0  0  0  0  0  0  0
  -17.6704   30.6680   -3.8405 N   0  0  0  0  0  0  0  0  0  0  0  0
  -15.9422   26.9963   -4.6444 N   0  0  0  0  0  0  0  0  0  0  0  0
  -17.3373   27.1195   -4.5542 C   0  0  0  0  0  0  0  0  0  0  0  0
  -17.9192   28.3769   -4.2695 N   0  0  0  0  0  0  0  0  0  0  0  0
  -17.1233   29.4559   -4.1075 C   0  0  0  0  0  0  0  0  0  0  0  0
  -15.7320   29.3521   -4.2057 C   0  0  0  0  0  0  0  0  0  0  0  0
  -15.1211   28.1284   -4.4737 C   0  0  0  0  0  0  0  0  0  0  0  0
  1  3  1  0  0  0  0
  1  5  1  0  0  0  0
  1  6  2  0  0  0  0
  2  5  2  0  0  0  0
  2 11  1  0  0  0  0
  2  4  1  0  0  0  0
  6 10  1  0  0  0  0
  7  8  2  0  0  0  0
  7 12  1  0  0  0  0
  8  9  1  0  0  0  0
  9 10  2  0  0  0  0
 10 11  1  0  0  0  0
 11 12  2  0  0  0  0
M  END
>  <CHROM.1>
-16.28380424,29.80857763,-4.07638782,1.58174008,0.04889247,0.19483997

>  <Name>
ligand

>  <RI>
0

>  <Rbt.Current_Directory>
/home/itssahil/PROJECTS/Mol_Feturizer/Test_systems_manuscript/rnas/4lx5

>  <Rbt.Executable>
rbdock ($Id: //depot/dev/client3/rdock/2013.1/src/exe/rbdock.cxx#4 $)

>  <Rbt.Library>
libRbt.so (2013.1, Build901 2013/11/27)

>  <Rbt.Parameter_File>
/export/apps/rDock/src/rDock_2013.1_src/data/scripts/dock_solv.prm

>  <Rbt.Receptor>
prm/blind_docking_100.prm

>  <SCORE>
-10.1693

>  <SCORE.INTER>
-10.1693

>  <SCORE.INTER.CONST>
1

>  <SCORE.INTER.POLAR>
0

>  <SCORE.INTER.ROT>
0

>  <SCORE.INTER.SOLV>
7.64603

>  <SCORE.INTER.VDW>
-12.9282

>  <SCORE.INTER.norm>
-0.847438

>  <SCORE.INTRA>
0

>  <SCORE.INTRA.DIHEDRAL>
0

>  <SCORE.INTRA.DIHEDRAL.0>
0

>  <SCORE.INTRA.POLAR>
0

>  <SCORE.INTRA.POLAR.0>
0

>  <SCORE.INTRA.REPUL>
0

>  <SCORE.INTRA.REPUL.0>
0

>  <SCORE.INTRA.SOLV>
0

>  <SCORE.INTRA.SOLV.lig_0>
-48.1583

>  <SCORE.INTRA.VDW>
0

>  <SCORE.INTRA.VDW.0>
0

>  <SCORE.INTRA.norm>
0

>  <SCORE.RESTR>
0

>  <SCORE.RESTR.CAVITY>
0

>  <SCORE.RESTR.norm>
0

>  <SCORE.SYSTEM>
0

>  <SCORE.SYSTEM.CONST>
0

>  <SCORE.SYSTEM.DIHEDRAL>
0

>  <SCORE.SYSTEM.SOLV>
0

>  <SCORE.SYSTEM.norm>
0

>  <SCORE.heavy>
12

>  <SCORE.norm>
-0.847438

>  <RMSD>
26.898

$$$$
ligand
 OpenBabel02271912143D
libRbt.so/2013.1/901 2013/11/27
 12 13  0  0  0  0  0  0  0  0999 V2000
  -16.8856   31.7478   -3.6546 C   0  0  0  0  0  0  0  0  0  0  0  0
  -14.9719   30.4723   -4.0362 C   0  0  0  0  0  0  0  0  0  0  0  0
  -17.4335   32.9324   -3.3989 N   0  0  0  0  0  0  0  0  0  0  0  0
  -13.6458   30.3262   -4.1318 N   0  0  0  0  0  0  0  0  0  0  0  0
  -15.5417   31.6514   -3.7541 N   0  0  0  0  0  0  0  0  0  0  0  0
  -17.6793   30.6691   -3.8371 N   0  0  0  0  0  0  0  0  0  0  0  0
  -16.0040   26.9795   -4.6708 N   0  0  0  0  0  0  0  0  0  0  0  0
  -17.3964   27.1191   -4.5652 C   0  0  0  0  0  0  0  0  0  0  0  0
  -17.9601   28.3825   -4.2705 N   0  0  0  0  0  0  0  0  0  0  0  0
  -17.1496   29.4514   -4.1137 C   0  0  0  0  0  0  0  0  0  0  0  0
  -15.7608   29.3312   -4.2271 C   0  0  0  0  0  0  0  0  0  0  0  0
  -15.1676   28.1011   -4.5053 C   0  0  0  0  0  0  0  0  0  0  0  0
  1  3  1  0  0  0  0
  1  5  1  0  0  0  0
  1  6  2  0  0  0  0
  2  5  2  0  0  0  0
  2 11  1  0  0  0  0
  2  4  1  0  0  0  0
  6 10  1  0  0  0  0
  7  8  2  0  0  0  0
  7 12  1  0  0  0  0
  8  9  1  0  0  0  0
  9 10  2  0  0  0  0
 10 11  1  0  0  0  0
 11 12  2  0  0  0  0
M  END
>  <CHROM.1>
-16.30564632,29.79381886,-4.09046833,1.56785741,0.05699537,0.19871170

>  <Name>
ligand

>  <RI>
0

>  <Rbt.Current_Directory>
/home/itssahil/PROJECTS/Mol_Feturizer/Test_systems_manuscript/rnas/4lx5

>  <Rbt.Executable>
rbdock ($Id: //depot/dev/client3/rdock/2013.1/src/exe/rbdock.cxx#4 $)

>  <Rbt.Library>
libRbt.so (2013.1, Build901 2013/11/27)

>  <Rbt.Parameter_File>
/export/apps/rDock/src/rDock_2013.1_src/data/scripts/dock_solv.prm

>  <Rbt.Receptor>
prm/blind_docking_40.prm

>  <SCORE>
-10.1384

>  <SCORE.INTER>
-10.1384

>  <SCORE.INTER.CONST>
1

>  <SCORE.INTER.POLAR>
0

>  <SCORE.INTER.ROT>
0

>  <SCORE.INTER.SOLV>
7.64126

>  <SCORE.INTER.VDW>
-12.906

>  <SCORE.INTER.norm>
-0.844869

>  <SCORE.INTRA>
0

>  <SCORE.INTRA.DIHEDRAL>
0

>  <SCORE.INTRA.DIHEDRAL.0>
0

>  <SCORE.INTRA.POLAR>
0

>  <SCORE.INTRA.POLAR.0>
0

>  <SCORE.INTRA.REPUL>
0

>  <SCORE.INTRA.REPUL.0>
0

>  <SCORE.INTRA.SOLV>
0

>  <SCORE.INTRA.SOLV.lig_0>
-48.1583

>  <SCORE.INTRA.VDW>
0

>  <SCORE.INTRA.VDW.0>
0

>  <SCORE.INTRA.norm>
0

>  <SCORE.RESTR>
0

>  <SCORE.RESTR.CAVITY>
0

>  <SCORE.RESTR.norm>
0

>  <SCORE.SYSTEM>
0

>  <SCORE.SYSTEM.CONST>
0

>  <SCORE.SYSTEM.DIHEDRAL>
0

>  <SCORE.SYSTEM.SOLV>
0

>  <SCORE.SYSTEM.norm>
0

>  <SCORE.heavy>
12

>  <SCORE.norm>
-0.844869

>  <RMSD>
26.913

$$$$
ligand
 OpenBabel02271912143D
libRbt.so/2013.1/901 2013/11/27
 12 13  0  0  0  0  0  0  0  0999 V2000
  -13.8746   30.1298   -4.0126 C   0  0  0  0  0  0  0  0  0  0  0  0
  -15.8344   29.3883   -5.0344 C   0  0  0  0  0  0  0  0  0  0  0  0
  -12.5849   29.9404   -3.7486 N   0  0  0  0  0  0  0  0  0  0  0  0
  -16.5385   28.4938   -5.7366 N   0  0  0  0  0  0  0  0  0  0  0  0
  -14.5415   29.2041   -4.7362 N   0  0  0  0  0  0  0  0  0  0  0  0
  -14.4884   31.2529   -3.5785 N   0  0  0  0  0  0  0  0  0  0  0  0
  -18.4898   31.8855   -4.4172 N   0  0  0  0  0  0  0  0  0  0  0  0
  -17.7631   32.8276   -3.6730 C   0  0  0  0  0  0  0  0  0  0  0  0
  -16.3978   32.5986   -3.3827 N   0  0  0  0  0  0  0  0  0  0  0  0
  -15.7988   31.4801   -3.8452 C   0  0  0  0  0  0  0  0  0  0  0  0
  -16.5060   30.5370   -4.5980 C   0  0  0  0  0  0  0  0  0  0  0  0
  -17.8550   30.7219   -4.8949 C   0  0  0  0  0  0  0  0  0  0  0  0
  1  3  1  0  0  0  0
  1  5  1  0  0  0  0
  1  6  2  0  0  0  0
  2  5  2  0  0  0  0
  2 11  1  0  0  0  0
  2  4  1  0  0  0  0
  6 10  1  0  0  0  0
  7  8  2  0  0  0  0
  7 12  1  0  0  0  0
  8  9  1  0  0  0  0
  9 10  2  0  0  0  0
 10 11  1  0  0  0  0
 11 12  2  0  0  0  0
M  END
>  <CHROM.1>
-15.86003616,30.69407721,-4.30189644,-0.45433148,-0.25618237,0.51252758

>  <Name>
ligand

>  <RI>
0

>  <Rbt.Current_Directory>
/home/itssahil/PROJECTS/Mol_Feturizer/Test_systems_manuscript/rnas/4lx5

>  <Rbt.Executable>
rbdock ($Id: //depot/dev/client3/rdock/2013.1/src/exe/rbdock.cxx#4 $)

>  <Rbt.Library>
libRbt.so (2013.1, Build901 2013/11/27)

>  <Rbt.Parameter_File>
/export/apps/rDock/src/rDock_2013.1_src/data/scripts/dock_solv.prm

>  <Rbt.Receptor>
prm/blind_docking_100.prm

>  <SCORE>
-6.59768

>  <SCORE.INTER>
-6.59768

>  <SCORE.INTER.CONST>
1

>  <SCORE.INTER.POLAR>
0

>  <SCORE.INTER.ROT>
0

>  <SCORE.INTER.SOLV>
3.6146

>  <SCORE.INTER.VDW>
-9.20332

>  <SCORE.INTER.norm>
-0.549807

>  <SCORE.INTRA>
0

>  <SCORE.INTRA.DIHEDRAL>
0

>  <SCORE.INTRA.DIHEDRAL.0>
0

>  <SCORE.INTRA.POLAR>
0

>  <SCORE.INTRA.POLAR.0>
0

>  <SCORE.INTRA.REPUL>
0

>  <SCORE.INTRA.REPUL.0>
0

>  <SCORE.INTRA.SOLV>
0

>  <SCORE.INTRA.SOLV.lig_0>
-48.1583

>  <SCORE.INTRA.VDW>
0

>  <SCORE.INTRA.VDW.0>
0

>  <SCORE.INTRA.norm>
0

>  <SCORE.RESTR>
0

>  <SCORE.RESTR.CAVITY>
0

>  <SCORE.RESTR.norm>
0

>  <SCORE.SYSTEM>
0

>  <SCORE.SYSTEM.CONST>
0

>  <SCORE.SYSTEM.DIHEDRAL>
0

>  <SCORE.SYSTEM.SOLV>
0

>  <SCORE.SYSTEM.norm>
0

>  <SCORE.heavy>
12

>  <SCORE.norm>
-0.549807

>  <RMSD>
26.918

$$$$
ligand
 OpenBabel02271912143D
libRbt.so/2013.1/901 2013/11/27
 12 13  0  0  0  0  0  0  0  0999 V2000
  -16.9693   31.8196   -3.5665 C   0  0  0  0  0  0  0  0  0  0  0  0
  -15.0401   30.5990   -4.0390 C   0  0  0  0  0  0  0  0  0  0  0  0
  -17.5381   32.9882   -3.2844 N   0  0  0  0  0  0  0  0  0  0  0  0
  -13.7163   30.4909   -4.1973 N   0  0  0  0  0  0  0  0  0  0  0  0
  -15.6294   31.7616   -3.7295 N   0  0  0  0  0  0  0  0  0  0  0  0
  -17.7395   30.7185   -3.7121 N   0  0  0  0  0  0  0  0  0  0  0  0
  -16.0008   27.0777   -4.6265 N   0  0  0  0  0  0  0  0  0  0  0  0
  -17.3901   27.1776   -4.4552 C   0  0  0  0  0  0  0  0  0  0  0  0
  -17.9750   28.4246   -4.1333 N   0  0  0  0  0  0  0  0  0  0  0  0
  -17.1889   29.5163   -4.0143 C   0  0  0  0  0  0  0  0  0  0  0  0
  -15.8042   29.4357   -4.1932 C   0  0  0  0  0  0  0  0  0  0  0  0
  -15.1899   28.2230   -4.5000 C   0  0  0  0  0  0  0  0  0  0  0  0
  1  3  1  0  0  0  0
  1  5  1  0  0  0  0
  1  6  2  0  0  0  0
  2  5  2  0  0  0  0
  2 11  1  0  0  0  0
  2  4  1  0  0  0  0
  6 10  1  0  0  0  0
  7  8  2  0  0  0  0
  7 12  1  0  0  0  0
  8  9  1  0  0  0  0
  9 10  2  0  0  0  0
 10 11  1  0  0  0  0
 11 12  2  0  0  0  0
M  END
>  <CHROM.1>
-16.35496036,29.88269616,-4.03068765,1.58665455,0.10896203,0.19717028

>  <Name>
ligand

>  <RI>
0

>  <Rbt.Current_Directory>
/home/itssahil/PROJECTS/Mol_Feturizer/Test_systems_manuscript/rnas/4lx5

>  <Rbt.Executable>
rbdock ($Id: //depot/dev/client3/rdock/2013.1/src/exe/rbdock.cxx#4 $)

>  <Rbt.Library>
libRbt.so (2013.1, Build901 2013/11/27)

>  <Rbt.Parameter_File>
/export/apps/rDock/src/rDock_2013.1_src/data/scripts/dock_solv.prm

>  <Rbt.Receptor>
prm/blind_docking_80.prm

>  <SCORE>
-10.1495

>  <SCORE.INTER>
-10.1495

>  <SCORE.INTER.CONST>
1

>  <SCORE.INTER.POLAR>
0

>  <SCORE.INTER.ROT>
0

>  <SCORE.INTER.SOLV>
8.53822

>  <SCORE.INTER.VDW>
-13.2124

>  <SCORE.INTER.norm>
-0.84579

>  <SCORE.INTRA>
0

>  <SCORE.INTRA.DIHEDRAL>
0

>  <SCORE.INTRA.DIHEDRAL.0>
0

>  <SCORE.INTRA.POLAR>
0

>  <SCORE.INTRA.POLAR.0>
0

>  <SCORE.INTRA.REPUL>
0

>  <SCORE.INTRA.REPUL.0>
0

>  <SCORE.INTRA.SOLV>
0

>  <SCORE.INTRA.SOLV.lig_0>
-48.1583

>  <SCORE.INTRA.VDW>
0

>  <SCORE.INTRA.VDW.0>
0

>  <SCORE.INTRA.norm>
0

>  <SCORE.RESTR>
0

>  <SCORE.RESTR.CAVITY>
0

>  <SCORE.RESTR.norm>
0

>  <SCORE.SYSTEM>
0

>  <SCORE.SYSTEM.CONST>
0

>  <SCORE.SYSTEM.DIHEDRAL>
0

>  <SCORE.SYSTEM.SOLV>
0

>  <SCORE.SYSTEM.norm>
0

>  <SCORE.heavy>
12

>  <SCORE.norm>
-0.84579

>  <RMSD>
26.980

$$$$
ligand
 OpenBabel02271912143D
libRbt.so/2013.1/901 2013/11/27
 12 13  0  0  0  0  0  0  0  0999 V2000
  -16.9396   31.7957   -3.6270 C   0  0  0  0  0  0  0  0  0  0  0  0
  -15.0413   30.5260   -4.0953 C   0  0  0  0  0  0  0  0  0  0  0  0
  -17.4803   32.9806   -3.3576 N   0  0  0  0  0  0  0  0  0  0  0  0
  -13.7215   30.3862   -4.2610 N   0  0  0  0  0  0  0  0  0  0  0  0
  -15.6025   31.7057   -3.7983 N   0  0  0  0  0  0  0  0  0  0  0  0
  -17.7351   30.7102   -3.7518 N   0  0  0  0  0  0  0  0  0  0  0  0
  -16.0840   27.0192   -4.6264 N   0  0  0  0  0  0  0  0  0  0  0  0
  -17.4695   27.1523   -4.4472 C   0  0  0  0  0  0  0  0  0  0  0  0
  -18.0244   28.4164   -4.1390 N   0  0  0  0  0  0  0  0  0  0  0  0
  -17.2135   29.4919   -4.0407 C   0  0  0  0  0  0  0  0  0  0  0  0
  -15.8321   29.3780   -4.2278 C   0  0  0  0  0  0  0  0  0  0  0  0
  -15.2470   28.1477   -4.5216 C   0  0  0  0  0  0  0  0  0  0  0  0
  1  3  1  0  0  0  0
  1  5  1  0  0  0  0
  1  6  2  0  0  0  0
  2  5  2  0  0  0  0
  2 11  1  0  0  0  0
  2  4  1  0  0  0  0
  6 10  1  0  0  0  0
  7  8  2  0  0  0  0
  7 12  1  0  0  0  0
  8  9  1  0  0  0  0
  9 10  2  0  0  0  0
 10 11  1  0  0  0  0
 11 12  2  0  0  0  0
M  END
>  <CHROM.1>
-16.37168807,29.83938073,-4.06792592,1.56337200,0.11155433,0.18567303

>  <Name>
ligand

>  <RI>
0

>  <Rbt.Current_Directory>
/home/itssahil/PROJECTS/Mol_Feturizer/Test_systems_manuscript/rnas/4lx5

>  <Rbt.Executable>
rbdock ($Id: //depot/dev/client3/rdock/2013.1/src/exe/rbdock.cxx#4 $)

>  <Rbt.Library>
libRbt.so (2013.1, Build901 2013/11/27)

>  <Rbt.Parameter_File>
/export/apps/rDock/src/rDock_2013.1_src/data/scripts/dock_solv.prm

>  <Rbt.Receptor>
prm/blind_docking_80.prm

>  <SCORE>
-10.1415

>  <SCORE.INTER>
-10.1415

>  <SCORE.INTER.CONST>
1

>  <SCORE.INTER.POLAR>
0

>  <SCORE.INTER.ROT>
0

>  <SCORE.INTER.SOLV>
8.23316

>  <SCORE.INTER.VDW>
-13.1054

>  <SCORE.INTER.norm>
-0.845125

>  <SCORE.INTRA>
0

>  <SCORE.INTRA.DIHEDRAL>
0

>  <SCORE.INTRA.DIHEDRAL.0>
0

>  <SCORE.INTRA.POLAR>
0

>  <SCORE.INTRA.POLAR.0>
0

>  <SCORE.INTRA.REPUL>
0

>  <SCORE.INTRA.REPUL.0>
0

>  <SCORE.INTRA.SOLV>
0

>  <SCORE.INTRA.SOLV.lig_0>
-48.1583

>  <SCORE.INTRA.VDW>
0

>  <SCORE.INTRA.VDW.0>
0

>  <SCORE.INTRA.norm>
0

>  <SCORE.RESTR>
0

>  <SCORE.RESTR.CAVITY>
0

>  <SCORE.RESTR.norm>
0

>  <SCORE.SYSTEM>
0

>  <SCORE.SYSTEM.CONST>
0

>  <SCORE.SYSTEM.DIHEDRAL>
0

>  <SCORE.SYSTEM.SOLV>
0

>  <SCORE.SYSTEM.norm>
0

>  <SCORE.heavy>
12

>  <SCORE.norm>
-0.845125

>  <RMSD>
26.981

$$$$
ligand
 OpenBabel02271912143D
libRbt.so/2013.1/901 2013/11/27
 12 13  0  0  0  0  0  0  0  0999 V2000
  -16.9712   31.8332   -3.5931 C   0  0  0  0  0  0  0  0  0  0  0  0
  -15.0444   30.6229   -4.1007 C   0  0  0  0  0  0  0  0  0  0  0  0
  -17.5425   33.0005   -3.3104 N   0  0  0  0  0  0  0  0  0  0  0  0
  -13.7243   30.5237   -4.2919 N   0  0  0  0  0  0  0  0  0  0  0  0
  -15.6355   31.7843   -3.7900 N   0  0  0  0  0  0  0  0  0  0  0  0
  -17.7355   30.7242   -3.7055 N   0  0  0  0  0  0  0  0  0  0  0  0
  -15.9898   27.0869   -4.6209 N   0  0  0  0  0  0  0  0  0  0  0  0
  -17.3751   27.1775   -4.4149 C   0  0  0  0  0  0  0  0  0  0  0  0
  -17.9622   28.4234   -4.0930 N   0  0  0  0  0  0  0  0  0  0  0  0
  -17.1826   29.5229   -4.0074 C   0  0  0  0  0  0  0  0  0  0  0  0
  -15.8023   29.4516   -4.2211 C   0  0  0  0  0  0  0  0  0  0  0  0
  -15.1857   28.2403   -4.5291 C   0  0  0  0  0  0  0  0  0  0  0  0
  1  3  1  0  0  0  0
  1  5  1  0  0  0  0
  1  6  2  0  0  0  0
  2  5  2  0  0  0  0
  2 11  1  0  0  0  0
  2  4  1  0  0  0  0
  6 10  1  0  0  0  0
  7  8  2  0  0  0  0
  7 12  1  0  0  0  0
  8  9  1  0  0  0  0
  9 10  2  0  0  0  0
 10 11  1  0  0  0  0
 11 12  2  0  0  0  0
M  END
>  <CHROM.1>
-16.35248671,29.89595957,-4.04977101,1.59000929,0.13591370,0.18465423

>  <Name>
ligand

>  <RI>
0

>  <Rbt.Current_Directory>
/home/itssahil/PROJECTS/Mol_Feturizer/Test_systems_manuscript/rnas/4lx5

>  <Rbt.Executable>
rbdock ($Id: //depot/dev/client3/rdock/2013.1/src/exe/rbdock.cxx#4 $)

>  <Rbt.Library>
libRbt.so (2013.1, Build901 2013/11/27)

>  <Rbt.Parameter_File>
/export/apps/rDock/src/rDock_2013.1_src/data/scripts/dock_solv.prm

>  <Rbt.Receptor>
prm/blind_docking_40.prm

>  <SCORE>
-10.2135

>  <SCORE.INTER>
-10.2135

>  <SCORE.INTER.CONST>
1

>  <SCORE.INTER.POLAR>
0

>  <SCORE.INTER.ROT>
0

>  <SCORE.INTER.SOLV>
8.70305

>  <SCORE.INTER.VDW>
-13.31

>  <SCORE.INTER.norm>
-0.851124

>  <SCORE.INTRA>
0

>  <SCORE.INTRA.DIHEDRAL>
0

>  <SCORE.INTRA.DIHEDRAL.0>
0

>  <SCORE.INTRA.POLAR>
0

>  <SCORE.INTRA.POLAR.0>
0

>  <SCORE.INTRA.REPUL>
0

>  <SCORE.INTRA.REPUL.0>
0

>  <SCORE.INTRA.SOLV>
0

>  <SCORE.INTRA.SOLV.lig_0>
-48.1583

>  <SCORE.INTRA.VDW>
0

>  <SCORE.INTRA.VDW.0>
0

>  <SCORE.INTRA.norm>
0

>  <SCORE.RESTR>
0

>  <SCORE.RESTR.CAVITY>
0

>  <SCORE.RESTR.norm>
0

>  <SCORE.SYSTEM>
0

>  <SCORE.SYSTEM.CONST>
0

>  <SCORE.SYSTEM.DIHEDRAL>
0

>  <SCORE.SYSTEM.SOLV>
0

>  <SCORE.SYSTEM.norm>
0

>  <SCORE.heavy>
12

>  <SCORE.norm>
-0.851124

>  <RMSD>
26.988

$$$$
ligand
 OpenBabel02271912143D
libRbt.so/2013.1/901 2013/11/27
 12 13  0  0  0  0  0  0  0  0999 V2000
  -16.9747   31.8321   -3.5823 C   0  0  0  0  0  0  0  0  0  0  0  0
  -15.0458   30.6274   -4.0948 C   0  0  0  0  0  0  0  0  0  0  0  0
  -17.5481   32.9971   -3.2946 N   0  0  0  0  0  0  0  0  0  0  0  0
  -13.7255   30.5313   -4.2861 N   0  0  0  0  0  0  0  0  0  0  0  0
  -15.6389   31.7863   -3.7792 N   0  0  0  0  0  0  0  0  0  0  0  0
  -17.7371   30.7223   -3.6998 N   0  0  0  0  0  0  0  0  0  0  0  0
  -15.9850   27.0921   -4.6309 N   0  0  0  0  0  0  0  0  0  0  0  0
  -17.3704   27.1793   -4.4248 C   0  0  0  0  0  0  0  0  0  0  0  0
  -17.9597   28.4228   -4.0975 N   0  0  0  0  0  0  0  0  0  0  0  0
  -17.1821   29.5233   -4.0069 C   0  0  0  0  0  0  0  0  0  0  0  0
  -15.8016   29.4553   -4.2206 C   0  0  0  0  0  0  0  0  0  0  0  0
  -15.1829   28.2464   -4.5338 C   0  0  0  0  0  0  0  0  0  0  0  0
  1  3  1  0  0  0  0
  1  5  1  0  0  0  0
  1  6  2  0  0  0  0
  2  5  2  0  0  0  0
  2 11  1  0  0  0  0
  2  4  1  0  0  0  0
  6 10  1  0  0  0  0
  7  8  2  0  0  0  0
  7 12  1  0  0  0  0
  8  9  1  0  0  0  0
  9 10  2  0  0  0  0
 10 11  1  0  0  0  0
 11 12  2  0  0  0  0
M  END
>  <CHROM.1>
-16.35260125,29.89794526,-4.04741098,1.59176352,0.13601374,0.18885213

>  <Name>
ligand

>  <RI>
0

>  <Rbt.Current_Directory>
/home/itssahil/PROJECTS/Mol_Feturizer/Test_systems_manuscript/rnas/4lx5

>  <Rbt.Executable>
rbdock ($Id: //depot/dev/client3/rdock/2013.1/src/exe/rbdock.cxx#4 $)

>  <Rbt.Library>
libRbt.so (2013.1, Build901 2013/11/27)

>  <Rbt.Parameter_File>
/export/apps/rDock/src/rDock_2013.1_src/data/scripts/dock_solv.prm

>  <Rbt.Receptor>
prm/blind_docking_40.prm

>  <SCORE>
-10.1821

>  <SCORE.INTER>
-10.1821

>  <SCORE.INTER.CONST>
1

>  <SCORE.INTER.POLAR>
0

>  <SCORE.INTER.ROT>
0

>  <SCORE.INTER.SOLV>
8.74817

>  <SCORE.INTER.VDW>
-13.3041

>  <SCORE.INTER.norm>
-0.848511

>  <SCORE.INTRA>
0

>  <SCORE.INTRA.DIHEDRAL>
0

>  <SCORE.INTRA.DIHEDRAL.0>
0

>  <SCORE.INTRA.POLAR>
0

>  <SCORE.INTRA.POLAR.0>
0

>  <SCORE.INTRA.REPUL>
0

>  <SCORE.INTRA.REPUL.0>
0

>  <SCORE.INTRA.SOLV>
0

>  <SCORE.INTRA.SOLV.lig_0>
-48.1583

>  <SCORE.INTRA.VDW>
0

>  <SCORE.INTRA.VDW.0>
0

>  <SCORE.INTRA.norm>
0

>  <SCORE.RESTR>
0

>  <SCORE.RESTR.CAVITY>
0

>  <SCORE.RESTR.norm>
0

>  <SCORE.SYSTEM>
0

>  <SCORE.SYSTEM.CONST>
0

>  <SCORE.SYSTEM.DIHEDRAL>
0

>  <SCORE.SYSTEM.SOLV>
0

>  <SCORE.SYSTEM.norm>
0

>  <SCORE.heavy>
12

>  <SCORE.norm>
-0.848511

>  <RMSD>
26.989

$$$$
ligand
 OpenBabel02271912143D
libRbt.so/2013.1/901 2013/11/27
 12 13  0  0  0  0  0  0  0  0999 V2000
  -13.8235   30.6593   -3.7502 C   0  0  0  0  0  0  0  0  0  0  0  0
  -15.6324   29.6100   -4.7805 C   0  0  0  0  0  0  0  0  0  0  0  0
  -12.5292   30.6596   -3.4440 N   0  0  0  0  0  0  0  0  0  0  0  0
  -16.1872   28.5950   -5.4520 N   0  0  0  0  0  0  0  0  0  0  0  0
  -14.3367   29.6175   -4.4404 N   0  0  0  0  0  0  0  0  0  0  0  0
  -14.5959   31.7088   -3.3917 N   0  0  0  0  0  0  0  0  0  0  0  0
  -18.6169   31.7516   -4.3634 N   0  0  0  0  0  0  0  0  0  0  0  0
  -18.0474   32.8188   -3.6519 C   0  0  0  0  0  0  0  0  0  0  0  0
  -16.6738   32.7913   -3.3156 N   0  0  0  0  0  0  0  0  0  0  0  0
  -15.9157   31.7430   -3.7030 C   0  0  0  0  0  0  0  0  0  0  0  0
  -16.4655   30.6771   -4.4225 C   0  0  0  0  0  0  0  0  0  0  0  0
  -17.8170   30.6626   -4.7627 C   0  0  0  0  0  0  0  0  0  0  0  0
  1  3  1  0  0  0  0
  1  5  1  0  0  0  0
  1  6  2  0  0  0  0
  2  5  2  0  0  0  0
  2 11  1  0  0  0  0
  2  4  1  0  0  0  0
  6 10  1  0  0  0  0
  7  8  2  0  0  0  0
  7 12  1  0  0  0  0
  8  9  1  0  0  0  0
  9 10  2  0  0  0  0
 10 11  1  0  0  0  0
 11 12  2  0  0  0  0
M  END
>  <CHROM.1>
-15.85632207,30.93452511,-4.11891618,-0.31817999,-0.21617302,0.49325216

>  <Name>
ligand

>  <RI>
0

>  <Rbt.Current_Directory>
/home/itssahil/PROJECTS/Mol_Feturizer/Test_systems_manuscript/rnas/4lx5

>  <Rbt.Executable>
rbdock ($Id: //depot/dev/client3/rdock/2013.1/src/exe/rbdock.cxx#4 $)

>  <Rbt.Library>
libRbt.so (2013.1, Build901 2013/11/27)

>  <Rbt.Parameter_File>
/export/apps/rDock/src/rDock_2013.1_src/data/scripts/dock_solv.prm

>  <Rbt.Receptor>
prm/blind_docking_60.prm

>  <SCORE>
-6.59189

>  <SCORE.INTER>
-6.59189

>  <SCORE.INTER.CONST>
1

>  <SCORE.INTER.POLAR>
0

>  <SCORE.INTER.ROT>
0

>  <SCORE.INTER.SOLV>
3.26856

>  <SCORE.INTER.VDW>
-9.08411

>  <SCORE.INTER.norm>
-0.549324

>  <SCORE.INTRA>
0

>  <SCORE.INTRA.DIHEDRAL>
0

>  <SCORE.INTRA.DIHEDRAL.0>
0

>  <SCORE.INTRA.POLAR>
0

>  <SCORE.INTRA.POLAR.0>
0

>  <SCORE.INTRA.REPUL>
0

>  <SCORE.INTRA.REPUL.0>
0

>  <SCORE.INTRA.SOLV>
0

>  <SCORE.INTRA.SOLV.lig_0>
-48.1583

>  <SCORE.INTRA.VDW>
0

>  <SCORE.INTRA.VDW.0>
0

>  <SCORE.INTRA.norm>
0

>  <SCORE.RESTR>
0

>  <SCORE.RESTR.CAVITY>
0

>  <SCORE.RESTR.norm>
0

>  <SCORE.SYSTEM>
0

>  <SCORE.SYSTEM.CONST>
0

>  <SCORE.SYSTEM.DIHEDRAL>
0

>  <SCORE.SYSTEM.SOLV>
0

>  <SCORE.SYSTEM.norm>
0

>  <SCORE.heavy>
12

>  <SCORE.norm>
-0.549324

>  <RMSD>
26.990

$$$$
ligand
 OpenBabel02271912143D
libRbt.so/2013.1/901 2013/11/27
 12 13  0  0  0  0  0  0  0  0999 V2000
  -16.9852   31.8038   -3.6057 C   0  0  0  0  0  0  0  0  0  0  0  0
  -15.0607   30.5813   -4.0923 C   0  0  0  0  0  0  0  0  0  0  0  0
  -17.5515   32.9739   -3.3248 N   0  0  0  0  0  0  0  0  0  0  0  0
  -13.7389   30.4728   -4.2651 N   0  0  0  0  0  0  0  0  0  0  0  0
  -15.6473   31.7455   -3.7838 N   0  0  0  0  0  0  0  0  0  0  0  0
  -17.7563   30.7013   -3.7350 N   0  0  0  0  0  0  0  0  0  0  0  0
  -16.0258   27.0555   -4.6450 N   0  0  0  0  0  0  0  0  0  0  0  0
  -17.4131   27.1557   -4.4584 C   0  0  0  0  0  0  0  0  0  0  0  0
  -17.9951   28.4044   -4.1381 N   0  0  0  0  0  0  0  0  0  0  0  0
  -17.2085   29.4974   -4.0354 C   0  0  0  0  0  0  0  0  0  0  0  0
  -15.8258   29.4165   -4.2298 C   0  0  0  0  0  0  0  0  0  0  0  0
  -15.2142   28.2021   -4.5355 C   0  0  0  0  0  0  0  0  0  0  0  0
  1  3  1  0  0  0  0
  1  5  1  0  0  0  0
  1  6  2  0  0  0  0
  2  5  2  0  0  0  0
  2 11  1  0  0  0  0
  2  4  1  0  0  0  0
  6 10  1  0  0  0  0
  7  8  2  0  0  0  0
  7 12  1  0  0  0  0
  8  9  1  0  0  0  0
  9 10  2  0  0  0  0
 10 11  1  0  0  0  0
 11 12  2  0  0  0  0
M  END
>  <CHROM.1>
-16.37498117,29.86421499,-4.06392881,1.58505235,0.12043132,0.19065057

>  <Name>
ligand

>  <RI>
0

>  <Rbt.Current_Directory>
/home/itssahil/PROJECTS/Mol_Feturizer/Test_systems_manuscript/rnas/4lx5

>  <Rbt.Executable>
rbdock ($Id: //depot/dev/client3/rdock/2013.1/src/exe/rbdock.cxx#4 $)

>  <Rbt.Library>
libRbt.so (2013.1, Build901 2013/11/27)

>  <Rbt.Parameter_File>
/export/apps/rDock/src/rDock_2013.1_src/data/scripts/dock_solv.prm

>  <Rbt.Receptor>
prm/blind_docking_40.prm

>  <SCORE>
-10.1815

>  <SCORE.INTER>
-10.1815

>  <SCORE.INTER.CONST>
1

>  <SCORE.INTER.POLAR>
0

>  <SCORE.INTER.ROT>
0

>  <SCORE.INTER.SOLV>
8.58779

>  <SCORE.INTER.VDW>
-13.2503

>  <SCORE.INTER.norm>
-0.848459

>  <SCORE.INTRA>
0

>  <SCORE.INTRA.DIHEDRAL>
0

>  <SCORE.INTRA.DIHEDRAL.0>
0

>  <SCORE.INTRA.POLAR>
0

>  <SCORE.INTRA.POLAR.0>
0

>  <SCORE.INTRA.REPUL>
0

>  <SCORE.INTRA.REPUL.0>
0

>  <SCORE.INTRA.SOLV>
0

>  <SCORE.INTRA.SOLV.lig_0>
-48.1583

>  <SCORE.INTRA.VDW>
0

>  <SCORE.INTRA.VDW.0>
0

>  <SCORE.INTRA.norm>
0

>  <SCORE.RESTR>
0

>  <SCORE.RESTR.CAVITY>
0

>  <SCORE.RESTR.norm>
0

>  <SCORE.SYSTEM>
0

>  <SCORE.SYSTEM.CONST>
0

>  <SCORE.SYSTEM.DIHEDRAL>
0

>  <SCORE.SYSTEM.SOLV>
0

>  <SCORE.SYSTEM.norm>
0

>  <SCORE.heavy>
12

>  <SCORE.norm>
-0.848459

>  <RMSD>
26.996

$$$$
ligand
 OpenBabel02271912143D
libRbt.so/2013.1/901 2013/11/27
 12 13  0  0  0  0  0  0  0  0999 V2000
  -16.9854   31.8144   -3.6116 C   0  0  0  0  0  0  0  0  0  0  0  0
  -15.0635   30.6007   -4.1297 C   0  0  0  0  0  0  0  0  0  0  0  0
  -17.5529   32.9825   -3.3245 N   0  0  0  0  0  0  0  0  0  0  0  0
  -13.7445   30.4990   -4.3268 N   0  0  0  0  0  0  0  0  0  0  0  0
  -15.6507   31.7629   -3.8145 N   0  0  0  0  0  0  0  0  0  0  0  0
  -17.7526   30.7073   -3.7224 N   0  0  0  0  0  0  0  0  0  0  0  0
  -16.0190   27.0677   -4.6513 N   0  0  0  0  0  0  0  0  0  0  0  0
  -17.4031   27.1609   -4.4391 C   0  0  0  0  0  0  0  0  0  0  0  0
  -17.9860   28.4076   -4.1126 N   0  0  0  0  0  0  0  0  0  0  0  0
  -17.2037   29.5053   -4.0287 C   0  0  0  0  0  0  0  0  0  0  0  0
  -15.8245   29.4313   -4.2486 C   0  0  0  0  0  0  0  0  0  0  0  0
  -15.2119   28.2191   -4.5613 C   0  0  0  0  0  0  0  0  0  0  0  0
  1  3  1  0  0  0  0
  1  5  1  0  0  0  0
  1  6  2  0  0  0  0
  2  5  2  0  0  0  0
  2 11  1  0  0  0  0
  2  4  1  0  0  0  0
  6 10  1  0  0  0  0
  7  8  2  0  0  0  0
  7 12  1  0  0  0  0
  8  9  1  0  0  0  0
  9 10  2  0  0  0  0
 10 11  1  0  0  0  0
 11 12  2  0  0  0  0
M  END
>  <CHROM.1>
-16.37295064,29.87657683,-4.07411312,1.58701751,0.13984552,0.18667116

>  <Name>
ligand

>  <RI>
0

>  <Rbt.Current_Directory>
/home/itssahil/PROJECTS/Mol_Feturizer/Test_systems_manuscript/rnas/4lx5

>  <Rbt.Executable>
rbdock ($Id: //depot/dev/client3/rdock/2013.1/src/exe/rbdock.cxx#4 $)

>  <Rbt.Library>
libRbt.so (2013.1, Build901 2013/11/27)

>  <Rbt.Parameter_File>
/export/apps/rDock/src/rDock_2013.1_src/data/scripts/dock_solv.prm

>  <Rbt.Receptor>
prm/blind_docking_60.prm

>  <SCORE>
-10.2024

>  <SCORE.INTER>
-10.2024

>  <SCORE.INTER.CONST>
1

>  <SCORE.INTER.POLAR>
0

>  <SCORE.INTER.ROT>
0

>  <SCORE.INTER.SOLV>
8.73226

>  <SCORE.INTER.VDW>
-13.3124

>  <SCORE.INTER.norm>
-0.850203

>  <SCORE.INTRA>
0

>  <SCORE.INTRA.DIHEDRAL>
0

>  <SCORE.INTRA.DIHEDRAL.0>
0

>  <SCORE.INTRA.POLAR>
0

>  <SCORE.INTRA.POLAR.0>
0

>  <SCORE.INTRA.REPUL>
0

>  <SCORE.INTRA.REPUL.0>
0

>  <SCORE.INTRA.SOLV>
0

>  <SCORE.INTRA.SOLV.lig_0>
-48.1583

>  <SCORE.INTRA.VDW>
0

>  <SCORE.INTRA.VDW.0>
0

>  <SCORE.INTRA.norm>
0

>  <SCORE.RESTR>
0

>  <SCORE.RESTR.CAVITY>
0

>  <SCORE.RESTR.norm>
0

>  <SCORE.SYSTEM>
0

>  <SCORE.SYSTEM.CONST>
0

>  <SCORE.SYSTEM.DIHEDRAL>
0

>  <SCORE.SYSTEM.SOLV>
0

>  <SCORE.SYSTEM.norm>
0

>  <SCORE.heavy>
12

>  <SCORE.norm>
-0.850203

>  <RMSD>
27.003

$$$$
ligand
 OpenBabel02271912143D
libRbt.so/2013.1/901 2013/11/27
 12 13  0  0  0  0  0  0  0  0999 V2000
  -16.9943   31.8117   -3.6168 C   0  0  0  0  0  0  0  0  0  0  0  0
  -15.0681   30.6043   -4.1335 C   0  0  0  0  0  0  0  0  0  0  0  0
  -17.5660   32.9782   -3.3317 N   0  0  0  0  0  0  0  0  0  0  0  0
  -13.7488   30.5071   -4.3310 N   0  0  0  0  0  0  0  0  0  0  0  0
  -15.6595   31.7648   -3.8202 N   0  0  0  0  0  0  0  0  0  0  0  0
  -17.7574   30.7015   -3.7252 N   0  0  0  0  0  0  0  0  0  0  0  0
  -16.0106   27.0667   -4.6481 N   0  0  0  0  0  0  0  0  0  0  0  0
  -17.3949   27.1551   -4.4354 C   0  0  0  0  0  0  0  0  0  0  0  0
  -17.9824   28.4002   -4.1109 N   0  0  0  0  0  0  0  0  0  0  0  0
  -17.2041   29.5010   -4.0295 C   0  0  0  0  0  0  0  0  0  0  0  0
  -15.8247   29.4317   -4.2498 C   0  0  0  0  0  0  0  0  0  0  0  0
  -15.2078   28.2213   -4.5605 C   0  0  0  0  0  0  0  0  0  0  0  0
  1  3  1  0  0  0  0
  1  5  1  0  0  0  0
  1  6  2  0  0  0  0
  2  5  2  0  0  0  0
  2 11  1  0  0  0  0
  2  4  1  0  0  0  0
  6 10  1  0  0  0  0
  7  8  2  0  0  0  0
  7 12  1  0  0  0  0
  8  9  1  0  0  0  0
  9 10  2  0  0  0  0
 10 11  1  0  0  0  0
 11 12  2  0  0  0  0
M  END
>  <CHROM.1>
-16.37481305,29.87530414,-4.07595125,1.59065555,0.14098438,0.18428989

>  <Name>
ligand

>  <RI>
0

>  <Rbt.Current_Directory>
/home/itssahil/PROJECTS/Mol_Feturizer/Test_systems_manuscript/rnas/4lx5

>  <Rbt.Executable>
rbdock ($Id: //depot/dev/client3/rdock/2013.1/src/exe/rbdock.cxx#4 $)

>  <Rbt.Library>
libRbt.so (2013.1, Build901 2013/11/27)

>  <Rbt.Parameter_File>
/export/apps/rDock/src/rDock_2013.1_src/data/scripts/dock_solv.prm

>  <Rbt.Receptor>
prm/blind_docking_100.prm

>  <SCORE>
-10.2007

>  <SCORE.INTER>
-10.2007

>  <SCORE.INTER.CONST>
1

>  <SCORE.INTER.POLAR>
0

>  <SCORE.INTER.ROT>
0

>  <SCORE.INTER.SOLV>
8.7688

>  <SCORE.INTER.VDW>
-13.3234

>  <SCORE.INTER.norm>
-0.850057

>  <SCORE.INTRA>
0

>  <SCORE.INTRA.DIHEDRAL>
0

>  <SCORE.INTRA.DIHEDRAL.0>
0

>  <SCORE.INTRA.POLAR>
0

>  <SCORE.INTRA.POLAR.0>
0

>  <SCORE.INTRA.REPUL>
0

>  <SCORE.INTRA.REPUL.0>
0

>  <SCORE.INTRA.SOLV>
0

>  <SCORE.INTRA.SOLV.lig_0>
-48.1583

>  <SCORE.INTRA.VDW>
0

>  <SCORE.INTRA.VDW.0>
0

>  <SCORE.INTRA.norm>
0

>  <SCORE.RESTR>
0

>  <SCORE.RESTR.CAVITY>
0

>  <SCORE.RESTR.norm>
0

>  <SCORE.SYSTEM>
0

>  <SCORE.SYSTEM.CONST>
0

>  <SCORE.SYSTEM.DIHEDRAL>
0

>  <SCORE.SYSTEM.SOLV>
0

>  <SCORE.SYSTEM.norm>
0

>  <SCORE.heavy>
12

>  <SCORE.norm>
-0.850057

>  <RMSD>
27.004

$$$$
ligand
 OpenBabel02271912143D
libRbt.so/2013.1/901 2013/11/27
 12 13  0  0  0  0  0  0  0  0999 V2000
  -16.9659   31.8284   -3.5976 C   0  0  0  0  0  0  0  0  0  0  0  0
  -15.0539   30.5971   -4.1105 C   0  0  0  0  0  0  0  0  0  0  0  0
  -17.5223   33.0003   -3.3044 N   0  0  0  0  0  0  0  0  0  0  0  0
  -13.7345   30.4818   -4.2972 N   0  0  0  0  0  0  0  0  0  0  0  0
  -15.6302   31.7631   -3.7895 N   0  0  0  0  0  0  0  0  0  0  0  0
  -17.7450   30.7313   -3.7254 N   0  0  0  0  0  0  0  0  0  0  0  0
  -16.0458   27.0805   -4.6736 N   0  0  0  0  0  0  0  0  0  0  0  0
  -17.4305   27.1879   -4.4724 C   0  0  0  0  0  0  0  0  0  0  0  0
  -18.0017   28.4383   -4.1392 N   0  0  0  0  0  0  0  0  0  0  0  0
  -17.2074   29.5259   -4.0382 C   0  0  0  0  0  0  0  0  0  0  0  0
  -15.8273   29.4378   -4.2470 C   0  0  0  0  0  0  0  0  0  0  0  0
  -15.2262   28.2215   -4.5658 C   0  0  0  0  0  0  0  0  0  0  0  0
  1  3  1  0  0  0  0
  1  5  1  0  0  0  0
  1  6  2  0  0  0  0
  2  5  2  0  0  0  0
  2 11  1  0  0  0  0
  2  4  1  0  0  0  0
  6 10  1  0  0  0  0
  7  8  2  0  0  0  0
  7 12  1  0  0  0  0
  8  9  1  0  0  0  0
  9 10  2  0  0  0  0
 10 11  1  0  0  0  0
 11 12  2  0  0  0  0
M  END
>  <CHROM.1>
-16.37207668,29.88785095,-4.07301463,1.57712795,0.12912202,0.19737242

>  <Name>
ligand

>  <RI>
0

>  <Rbt.Current_Directory>
/home/itssahil/PROJECTS/Mol_Feturizer/Test_systems_manuscript/rnas/4lx5

>  <Rbt.Executable>
rbdock ($Id: //depot/dev/client3/rdock/2013.1/src/exe/rbdock.cxx#4 $)

>  <Rbt.Library>
libRbt.so (2013.1, Build901 2013/11/27)

>  <Rbt.Parameter_File>
/export/apps/rDock/src/rDock_2013.1_src/data/scripts/dock_solv.prm

>  <Rbt.Receptor>
prm/blind_docking_100.prm

>  <SCORE>
-10.1716

>  <SCORE.INTER>
-10.1716

>  <SCORE.INTER.CONST>
1

>  <SCORE.INTER.POLAR>
0

>  <SCORE.INTER.ROT>
0

>  <SCORE.INTER.SOLV>
8.59321

>  <SCORE.INTER.VDW>
-13.2455

>  <SCORE.INTER.norm>
-0.847635

>  <SCORE.INTRA>
0

>  <SCORE.INTRA.DIHEDRAL>
0

>  <SCORE.INTRA.DIHEDRAL.0>
0

>  <SCORE.INTRA.POLAR>
0

>  <SCORE.INTRA.POLAR.0>
0

>  <SCORE.INTRA.REPUL>
0

>  <SCORE.INTRA.REPUL.0>
0

>  <SCORE.INTRA.SOLV>
0

>  <SCORE.INTRA.SOLV.lig_0>
-48.1583

>  <SCORE.INTRA.VDW>
0

>  <SCORE.INTRA.VDW.0>
0

>  <SCORE.INTRA.norm>
0

>  <SCORE.RESTR>
0

>  <SCORE.RESTR.CAVITY>
0

>  <SCORE.RESTR.norm>
0

>  <SCORE.SYSTEM>
0

>  <SCORE.SYSTEM.CONST>
0

>  <SCORE.SYSTEM.DIHEDRAL>
0

>  <SCORE.SYSTEM.SOLV>
0

>  <SCORE.SYSTEM.norm>
0

>  <SCORE.heavy>
12

>  <SCORE.norm>
-0.847635

>  <RMSD>
27.008

$$$$
ligand
 OpenBabel02271912143D
libRbt.so/2013.1/901 2013/11/27
 12 13  0  0  0  0  0  0  0  0999 V2000
  -16.9235   31.8390   -3.5604 C   0  0  0  0  0  0  0  0  0  0  0  0
  -15.0633   30.6215   -4.2621 C   0  0  0  0  0  0  0  0  0  0  0  0
  -17.4575   33.0078   -3.2175 N   0  0  0  0  0  0  0  0  0  0  0  0
  -13.7693   30.5166   -4.5839 N   0  0  0  0  0  0  0  0  0  0  0  0
  -15.6143   31.7843   -3.8893 N   0  0  0  0  0  0  0  0  0  0  0  0
  -17.7012   30.7343   -3.6009 N   0  0  0  0  0  0  0  0  0  0  0  0
  -16.0749   27.0927   -4.7003 N   0  0  0  0  0  0  0  0  0  0  0  0
  -17.4323   27.1892   -4.3573 C   0  0  0  0  0  0  0  0  0  0  0  0
  -17.9777   28.4365   -3.9734 N   0  0  0  0  0  0  0  0  0  0  0  0
  -17.1876   29.5317   -3.9612 C   0  0  0  0  0  0  0  0  0  0  0  0
  -15.8357   29.4545   -4.3114 C   0  0  0  0  0  0  0  0  0  0  0  0
  -15.2594   28.2416   -4.6842 C   0  0  0  0  0  0  0  0  0  0  0  0
  1  3  1  0  0  0  0
  1  5  1  0  0  0  0
  1  6  2  0  0  0  0
  2  5  2  0  0  0  0
  2 11  1  0  0  0  0
  2  4  1  0  0  0  0
  6 10  1  0  0  0  0
  7  8  2  0  0  0  0
  7 12  1  0  0  0  0
  8  9  1  0  0  0  0
  9 10  2  0  0  0  0
 10 11  1  0  0  0  0
 11 12  2  0  0  0  0
M  END
>  <CHROM.1>
-16.36376864,29.90082836,-4.08433908,1.56577301,0.23272590,0.19351950

>  <Name>
ligand

>  <RI>
0

>  <Rbt.Current_Directory>
/home/itssahil/PROJECTS/Mol_Feturizer/Test_systems_manuscript/rnas/4lx5

>  <Rbt.Executable>
rbdock ($Id: //depot/dev/client3/rdock/2013.1/src/exe/rbdock.cxx#4 $)

>  <Rbt.Library>
libRbt.so (2013.1, Build901 2013/11/27)

>  <Rbt.Parameter_File>
/export/apps/rDock/src/rDock_2013.1_src/data/scripts/dock_solv.prm

>  <Rbt.Receptor>
prm/blind_docking_100.prm

>  <SCORE>
-10.127

>  <SCORE.INTER>
-10.127

>  <SCORE.INTER.CONST>
1

>  <SCORE.INTER.POLAR>
0

>  <SCORE.INTER.ROT>
0

>  <SCORE.INTER.SOLV>
9.27676

>  <SCORE.INTER.VDW>
-13.4436

>  <SCORE.INTER.norm>
-0.843918

>  <SCORE.INTRA>
0

>  <SCORE.INTRA.DIHEDRAL>
0

>  <SCORE.INTRA.DIHEDRAL.0>
0

>  <SCORE.INTRA.POLAR>
0

>  <SCORE.INTRA.POLAR.0>
0

>  <SCORE.INTRA.REPUL>
0

>  <SCORE.INTRA.REPUL.0>
0

>  <SCORE.INTRA.SOLV>
0

>  <SCORE.INTRA.SOLV.lig_0>
-48.1583

>  <SCORE.INTRA.VDW>
0

>  <SCORE.INTRA.VDW.0>
0

>  <SCORE.INTRA.norm>
0

>  <SCORE.RESTR>
0

>  <SCORE.RESTR.CAVITY>
0

>  <SCORE.RESTR.norm>
0

>  <SCORE.SYSTEM>
0

>  <SCORE.SYSTEM.CONST>
0

>  <SCORE.SYSTEM.DIHEDRAL>
0

>  <SCORE.SYSTEM.SOLV>
0

>  <SCORE.SYSTEM.norm>
0

>  <SCORE.heavy>
12

>  <SCORE.norm>
-0.843918

>  <RMSD>
27.010

$$$$
ligand
 OpenBabel02271912143D
libRbt.so/2013.1/901 2013/11/27
 12 13  0  0  0  0  0  0  0  0999 V2000
  -17.0568   31.7702   -3.6599 C   0  0  0  0  0  0  0  0  0  0  0  0
  -15.0948   30.5728   -4.0494 C   0  0  0  0  0  0  0  0  0  0  0  0
  -17.6508   32.9318   -3.4015 N   0  0  0  0  0  0  0  0  0  0  0  0
  -13.7643   30.4802   -4.1502 N   0  0  0  0  0  0  0  0  0  0  0  0
  -15.7105   31.7280   -3.7646 N   0  0  0  0  0  0  0  0  0  0  0  0
  -17.8071   30.6606   -3.8400 N   0  0  0  0  0  0  0  0  0  0  0  0
  -15.9882   27.0416   -4.6820 N   0  0  0  0  0  0  0  0  0  0  0  0
  -17.3847   27.1252   -4.5712 C   0  0  0  0  0  0  0  0  0  0  0  0
  -17.9975   28.3648   -4.2736 N   0  0  0  0  0  0  0  0  0  0  0  0
  -17.2300   29.4653   -4.1193 C   0  0  0  0  0  0  0  0  0  0  0  0
  -15.8380   29.4010   -4.2380 C   0  0  0  0  0  0  0  0  0  0  0  0
  -15.1969   28.1959   -4.5191 C   0  0  0  0  0  0  0  0  0  0  0  0
  1  3  1  0  0  0  0
  1  5  1  0  0  0  0
  1  6  2  0  0  0  0
  2  5  2  0  0  0  0
  2 11  1  0  0  0  0
  2  4  1  0  0  0  0
  6 10  1  0  0  0  0
  7  8  2  0  0  0  0
  7 12  1  0  0  0  0
  8  9  1  0  0  0  0
  9 10  2  0  0  0  0
 10 11  1  0  0  0  0
 11 12  2  0  0  0  0
M  END
>  <CHROM.1>
-16.40043572,29.84135115,-4.09905204,1.60658655,0.06859327,0.19675096

>  <Name>
ligand

>  <RI>
0

>  <Rbt.Current_Directory>
/home/itssahil/PROJECTS/Mol_Feturizer/Test_systems_manuscript/rnas/4lx5

>  <Rbt.Executable>
rbdock ($Id: //depot/dev/client3/rdock/2013.1/src/exe/rbdock.cxx#4 $)

>  <Rbt.Library>
libRbt.so (2013.1, Build901 2013/11/27)

>  <Rbt.Parameter_File>
/export/apps/rDock/src/rDock_2013.1_src/data/scripts/dock_solv.prm

>  <Rbt.Receptor>
prm/blind_docking_40.prm

>  <SCORE>
-10.1435

>  <SCORE.INTER>
-10.1435

>  <SCORE.INTER.CONST>
1

>  <SCORE.INTER.POLAR>
0

>  <SCORE.INTER.ROT>
0

>  <SCORE.INTER.SOLV>
8.43783

>  <SCORE.INTER.VDW>
-13.1749

>  <SCORE.INTER.norm>
-0.845291

>  <SCORE.INTRA>
0

>  <SCORE.INTRA.DIHEDRAL>
0

>  <SCORE.INTRA.DIHEDRAL.0>
0

>  <SCORE.INTRA.POLAR>
0

>  <SCORE.INTRA.POLAR.0>
0

>  <SCORE.INTRA.REPUL>
0

>  <SCORE.INTRA.REPUL.0>
0

>  <SCORE.INTRA.SOLV>
0

>  <SCORE.INTRA.SOLV.lig_0>
-48.1583

>  <SCORE.INTRA.VDW>
0

>  <SCORE.INTRA.VDW.0>
0

>  <SCORE.INTRA.norm>
0

>  <SCORE.RESTR>
0

>  <SCORE.RESTR.CAVITY>
0

>  <SCORE.RESTR.norm>
0

>  <SCORE.SYSTEM>
0

>  <SCORE.SYSTEM.CONST>
0

>  <SCORE.SYSTEM.DIHEDRAL>
0

>  <SCORE.SYSTEM.SOLV>
0

>  <SCORE.SYSTEM.norm>
0

>  <SCORE.heavy>
12

>  <SCORE.norm>
-0.845291

>  <RMSD>
27.018

$$$$
ligand
 OpenBabel02271912143D
libRbt.so/2013.1/901 2013/11/27
 12 13  0  0  0  0  0  0  0  0999 V2000
  -17.0978   31.7870   -3.7102 C   0  0  0  0  0  0  0  0  0  0  0  0
  -15.1161   30.6195   -4.0909 C   0  0  0  0  0  0  0  0  0  0  0  0
  -17.7118   32.9417   -3.4680 N   0  0  0  0  0  0  0  0  0  0  0  0
  -13.7847   30.5498   -4.1978 N   0  0  0  0  0  0  0  0  0  0  0  0
  -15.7515   31.7679   -3.8220 N   0  0  0  0  0  0  0  0  0  0  0  0
  -17.8284   30.6609   -3.8671 N   0  0  0  0  0  0  0  0  0  0  0  0
  -15.9473   27.0622   -4.6584 N   0  0  0  0  0  0  0  0  0  0  0  0
  -17.3445   27.1219   -4.5408 C   0  0  0  0  0  0  0  0  0  0  0  0
  -17.9785   28.3548   -4.2607 N   0  0  0  0  0  0  0  0  0  0  0  0
  -17.2308   29.4718   -4.1295 C   0  0  0  0  0  0  0  0  0  0  0  0
  -15.8384   29.4312   -4.2552 C   0  0  0  0  0  0  0  0  0  0  0  0
  -15.1767   28.2335   -4.5196 C   0  0  0  0  0  0  0  0  0  0  0  0
  1  3  1  0  0  0  0
  1  5  1  0  0  0  0
  1  6  2  0  0  0  0
  2  5  2  0  0  0  0
  2 11  1  0  0  0  0
  2  4  1  0  0  0  0
  6 10  1  0  0  0  0
  7  8  2  0  0  0  0
  7 12  1  0  0  0  0
  8  9  1  0  0  0  0
  9 10  2  0  0  0  0
 10 11  1  0  0  0  0
 11 12  2  0  0  0  0
M  END
>  <CHROM.1>
-16.40820664,29.86338948,-4.12046159,1.62375038,0.07764061,0.17852567

>  <Name>
ligand

>  <RI>
0

>  <Rbt.Current_Directory>
/home/itssahil/PROJECTS/Mol_Feturizer/Test_systems_manuscript/rnas/4lx5

>  <Rbt.Executable>
rbdock ($Id: //depot/dev/client3/rdock/2013.1/src/exe/rbdock.cxx#4 $)

>  <Rbt.Library>
libRbt.so (2013.1, Build901 2013/11/27)

>  <Rbt.Parameter_File>
/export/apps/rDock/src/rDock_2013.1_src/data/scripts/dock_solv.prm

>  <Rbt.Receptor>
prm/blind_docking_100.prm

>  <SCORE>
-10.1338

>  <SCORE.INTER>
-10.1338

>  <SCORE.INTER.CONST>
1

>  <SCORE.INTER.POLAR>
0

>  <SCORE.INTER.ROT>
0

>  <SCORE.INTER.SOLV>
8.6136

>  <SCORE.INTER.VDW>
-13.2271

>  <SCORE.INTER.norm>
-0.844482

>  <SCORE.INTRA>
0

>  <SCORE.INTRA.DIHEDRAL>
0

>  <SCORE.INTRA.DIHEDRAL.0>
0

>  <SCORE.INTRA.POLAR>
0

>  <SCORE.INTRA.POLAR.0>
0

>  <SCORE.INTRA.REPUL>
0

>  <SCORE.INTRA.REPUL.0>
0

>  <SCORE.INTRA.SOLV>
0

>  <SCORE.INTRA.SOLV.lig_0>
-48.1583

>  <SCORE.INTRA.VDW>
0

>  <SCORE.INTRA.VDW.0>
0

>  <SCORE.INTRA.norm>
0

>  <SCORE.RESTR>
0

>  <SCORE.RESTR.CAVITY>
0

>  <SCORE.RESTR.norm>
0

>  <SCORE.SYSTEM>
0

>  <SCORE.SYSTEM.CONST>
0

>  <SCORE.SYSTEM.DIHEDRAL>
0

>  <SCORE.SYSTEM.SOLV>
0

>  <SCORE.SYSTEM.norm>
0

>  <SCORE.heavy>
12

>  <SCORE.norm>
-0.844482

>  <RMSD>
27.039

$$$$
ligand
 OpenBabel02271912143D
libRbt.so/2013.1/901 2013/11/27
 12 13  0  0  0  0  0  0  0  0999 V2000
  -13.9427   30.3341   -3.8753 C   0  0  0  0  0  0  0  0  0  0  0  0
  -14.7115   32.3128   -2.9118 C   0  0  0  0  0  0  0  0  0  0  0  0
  -12.9698   29.4383   -4.0171 N   0  0  0  0  0  0  0  0  0  0  0  0
  -14.5480   33.4016   -2.1523 N   0  0  0  0  0  0  0  0  0  0  0  0
  -13.7355   31.4122   -3.0879 N   0  0  0  0  0  0  0  0  0  0  0  0
  -15.1272   30.1391   -4.4961 N   0  0  0  0  0  0  0  0  0  0  0  0
  -18.1836   32.8900   -4.0427 N   0  0  0  0  0  0  0  0  0  0  0  0
  -18.3640   31.7552   -4.8483 C   0  0  0  0  0  0  0  0  0  0  0  0
  -17.3103   30.8247   -5.0053 N   0  0  0  0  0  0  0  0  0  0  0  0
  -16.1425   31.0279   -4.3581 C   0  0  0  0  0  0  0  0  0  0  0  0
  -15.9508   32.1478   -3.5425 C   0  0  0  0  0  0  0  0  0  0  0  0
  -16.9612   33.0924   -3.3720 C   0  0  0  0  0  0  0  0  0  0  0  0
  1  3  1  0  0  0  0
  1  5  1  0  0  0  0
  1  6  2  0  0  0  0
  2  5  2  0  0  0  0
  2 11  1  0  0  0  0
  2  4  1  0  0  0  0
  6 10  1  0  0  0  0
  7  8  2  0  0  0  0
  7 12  1  0  0  0  0
  8  9  1  0  0  0  0
  9 10  2  0  0  0  0
 10 11  1  0  0  0  0
 11 12  2  0  0  0  0
M  END
>  <CHROM.1>
-15.63542501,31.54827635,-3.80841756,0.24587627,0.34659357,-2.56836836

>  <Name>
ligand

>  <RI>
0

>  <Rbt.Current_Directory>
/home/itssahil/PROJECTS/Mol_Feturizer/Test_systems_manuscript/rnas/4lx5

>  <Rbt.Executable>
rbdock ($Id: //depot/dev/client3/rdock/2013.1/src/exe/rbdock.cxx#4 $)

>  <Rbt.Library>
libRbt.so (2013.1, Build901 2013/11/27)

>  <Rbt.Parameter_File>
/export/apps/rDock/src/rDock_2013.1_src/data/scripts/dock_solv.prm

>  <Rbt.Receptor>
prm/blind_docking_40.prm

>  <SCORE>
-6.17753

>  <SCORE.INTER>
-6.17753

>  <SCORE.INTER.CONST>
1

>  <SCORE.INTER.POLAR>
0

>  <SCORE.INTER.ROT>
0

>  <SCORE.INTER.SOLV>
2.18733

>  <SCORE.INTER.VDW>
-8.44746

>  <SCORE.INTER.norm>
-0.514794

>  <SCORE.INTRA>
0

>  <SCORE.INTRA.DIHEDRAL>
0

>  <SCORE.INTRA.DIHEDRAL.0>
0

>  <SCORE.INTRA.POLAR>
0

>  <SCORE.INTRA.POLAR.0>
0

>  <SCORE.INTRA.REPUL>
0

>  <SCORE.INTRA.REPUL.0>
0

>  <SCORE.INTRA.SOLV>
0

>  <SCORE.INTRA.SOLV.lig_0>
-48.1583

>  <SCORE.INTRA.VDW>
0

>  <SCORE.INTRA.VDW.0>
0

>  <SCORE.INTRA.norm>
0

>  <SCORE.RESTR>
0

>  <SCORE.RESTR.CAVITY>
0

>  <SCORE.RESTR.norm>
0

>  <SCORE.SYSTEM>
0

>  <SCORE.SYSTEM.CONST>
0

>  <SCORE.SYSTEM.DIHEDRAL>
0

>  <SCORE.SYSTEM.SOLV>
0

>  <SCORE.SYSTEM.norm>
0

>  <SCORE.heavy>
12

>  <SCORE.norm>
-0.514794

>  <RMSD>
27.149

$$$$
ligand
 OpenBabel02271912143D
libRbt.so/2013.1/901 2013/11/27
 12 13  0  0  0  0  0  0  0  0999 V2000
  -16.6066   28.3866   -4.6647 C   0  0  0  0  0  0  0  0  0  0  0  0
  -14.9796   29.9964   -4.2217 C   0  0  0  0  0  0  0  0  0  0  0  0
  -16.9122   27.1271   -4.9630 N   0  0  0  0  0  0  0  0  0  0  0  0
  -13.7077   30.3940   -4.1062 N   0  0  0  0  0  0  0  0  0  0  0  0
  -15.3077   28.7388   -4.5465 N   0  0  0  0  0  0  0  0  0  0  0  0
  -17.5958   29.2841   -4.4585 N   0  0  0  0  0  0  0  0  0  0  0  0
  -16.6747   33.1999   -3.4925 N   0  0  0  0  0  0  0  0  0  0  0  0
  -18.0128   32.7960   -3.6185 C   0  0  0  0  0  0  0  0  0  0  0  0
  -18.3183   31.4574   -3.9584 N   0  0  0  0  0  0  0  0  0  0  0  0
  -17.3146   30.5719   -4.1384 C   0  0  0  0  0  0  0  0  0  0  0  0
  -15.9764   30.9558   -4.0052 C   0  0  0  0  0  0  0  0  0  0  0  0
  -15.6352   32.2679   -3.6824 C   0  0  0  0  0  0  0  0  0  0  0  0
  1  3  1  0  0  0  0
  1  5  1  0  0  0  0
  1  6  2  0  0  0  0
  2  5  2  0  0  0  0
  2 11  1  0  0  0  0
  2  4  1  0  0  0  0
  6 10  1  0  0  0  0
  7  8  2  0  0  0  0
  7 12  1  0  0  0  0
  8  9  1  0  0  0  0
  9 10  2  0  0  0  0
 10 11  1  0  0  0  0
 11 12  2  0  0  0  0
M  END
>  <CHROM.1>
-16.42007238,30.40081511,-4.16230480,1.37487688,0.02294901,-2.90331107

>  <Name>
ligand

>  <RI>
0

>  <Rbt.Current_Directory>
/home/itssahil/PROJECTS/Mol_Feturizer/Test_systems_manuscript/rnas/4lx5

>  <Rbt.Executable>
rbdock ($Id: //depot/dev/client3/rdock/2013.1/src/exe/rbdock.cxx#4 $)

>  <Rbt.Library>
libRbt.so (2013.1, Build901 2013/11/27)

>  <Rbt.Parameter_File>
/export/apps/rDock/src/rDock_2013.1_src/data/scripts/dock_solv.prm

>  <Rbt.Receptor>
prm/blind_docking_40.prm

>  <SCORE>
-6.73195

>  <SCORE.INTER>
-6.73195

>  <SCORE.INTER.CONST>
1

>  <SCORE.INTER.POLAR>
0

>  <SCORE.INTER.ROT>
0

>  <SCORE.INTER.SOLV>
10.5692

>  <SCORE.INTER.VDW>
-11.611

>  <SCORE.INTER.norm>
-0.560996

>  <SCORE.INTRA>
0

>  <SCORE.INTRA.DIHEDRAL>
0

>  <SCORE.INTRA.DIHEDRAL.0>
0

>  <SCORE.INTRA.POLAR>
0

>  <SCORE.INTRA.POLAR.0>
0

>  <SCORE.INTRA.REPUL>
0

>  <SCORE.INTRA.REPUL.0>
0

>  <SCORE.INTRA.SOLV>
0

>  <SCORE.INTRA.SOLV.lig_0>
-48.1583

>  <SCORE.INTRA.VDW>
0

>  <SCORE.INTRA.VDW.0>
0

>  <SCORE.INTRA.norm>
0

>  <SCORE.RESTR>
0

>  <SCORE.RESTR.CAVITY>
0

>  <SCORE.RESTR.norm>
0

>  <SCORE.SYSTEM>
0

>  <SCORE.SYSTEM.CONST>
0

>  <SCORE.SYSTEM.DIHEDRAL>
0

>  <SCORE.SYSTEM.SOLV>
0

>  <SCORE.SYSTEM.norm>
0

>  <SCORE.heavy>
12

>  <SCORE.norm>
-0.560996

>  <RMSD>
27.250

$$$$
ligand
 OpenBabel02271912143D
libRbt.so/2013.1/901 2013/11/27
 12 13  0  0  0  0  0  0  0  0999 V2000
  -13.9342   32.0171   -4.0831 C   0  0  0  0  0  0  0  0  0  0  0  0
  -16.2400   32.2310   -3.8137 C   0  0  0  0  0  0  0  0  0  0  0  0
  -12.7073   32.4192   -3.7639 N   0  0  0  0  0  0  0  0  0  0  0  0
  -17.3218   32.8228   -3.2956 N   0  0  0  0  0  0  0  0  0  0  0  0
  -14.9966   32.6375   -3.5249 N   0  0  0  0  0  0  0  0  0  0  0  0
  -14.0981   30.9812   -4.9355 N   0  0  0  0  0  0  0  0  0  0  0  0
  -17.9023   29.6851   -5.9168 N   0  0  0  0  0  0  0  0  0  0  0  0
  -16.7747   29.0614   -6.4726 C   0  0  0  0  0  0  0  0  0  0  0  0
  -15.4780   29.5172   -6.1389 N   0  0  0  0  0  0  0  0  0  0  0  0
  -15.3368   30.5397   -5.2678 C   0  0  0  0  0  0  0  0  0  0  0  0
  -16.4501   31.1644   -4.6964 C   0  0  0  0  0  0  0  0  0  0  0  0
  -17.7438   30.7510   -5.0091 C   0  0  0  0  0  0  0  0  0  0  0  0
  1  3  1  0  0  0  0
  1  5  1  0  0  0  0
  1  6  2  0  0  0  0
  2  5  2  0  0  0  0
  2 11  1  0  0  0  0
  2  4  1  0  0  0  0
  6 10  1  0  0  0  0
  7  8  2  0  0  0  0
  7 12  1  0  0  0  0
  8  9  1  0  0  0  0
  9 10  2  0  0  0  0
 10 11  1  0  0  0  0
 11 12  2  0  0  0  0
M  END
>  <CHROM.1>
-15.72322042,31.16698158,-4.73190505,-0.82373621,-0.02389713,-2.44171203

>  <Name>
ligand

>  <RI>
0

>  <Rbt.Current_Directory>
/home/itssahil/PROJECTS/Mol_Feturizer/Test_systems_manuscript/rnas/4lx5

>  <Rbt.Executable>
rbdock ($Id: //depot/dev/client3/rdock/2013.1/src/exe/rbdock.cxx#4 $)

>  <Rbt.Library>
libRbt.so (2013.1, Build901 2013/11/27)

>  <Rbt.Parameter_File>
/export/apps/rDock/src/rDock_2013.1_src/data/scripts/dock_solv.prm

>  <Rbt.Receptor>
prm/blind_docking_40.prm

>  <SCORE>
-5.40556

>  <SCORE.INTER>
-5.40556

>  <SCORE.INTER.CONST>
1

>  <SCORE.INTER.POLAR>
0

>  <SCORE.INTER.ROT>
0

>  <SCORE.INTER.SOLV>
11.0832

>  <SCORE.INTER.VDW>
-10.8981

>  <SCORE.INTER.norm>
-0.450463

>  <SCORE.INTRA>
0

>  <SCORE.INTRA.DIHEDRAL>
0

>  <SCORE.INTRA.DIHEDRAL.0>
0

>  <SCORE.INTRA.POLAR>
0

>  <SCORE.INTRA.POLAR.0>
0

>  <SCORE.INTRA.REPUL>
0

>  <SCORE.INTRA.REPUL.0>
0

>  <SCORE.INTRA.SOLV>
0

>  <SCORE.INTRA.SOLV.lig_0>
-48.1583

>  <SCORE.INTRA.VDW>
0

>  <SCORE.INTRA.VDW.0>
0

>  <SCORE.INTRA.norm>
0

>  <SCORE.RESTR>
0

>  <SCORE.RESTR.CAVITY>
0

>  <SCORE.RESTR.norm>
0

>  <SCORE.SYSTEM>
0

>  <SCORE.SYSTEM.CONST>
0

>  <SCORE.SYSTEM.DIHEDRAL>
0

>  <SCORE.SYSTEM.SOLV>
0

>  <SCORE.SYSTEM.norm>
0

>  <SCORE.heavy>
12

>  <SCORE.norm>
-0.450463

>  <RMSD>
27.287

$$$$
ligand
 OpenBabel02271912143D
libRbt.so/2013.1/901 2013/11/27
 12 13  0  0  0  0  0  0  0  0999 V2000
  -15.9698   33.1731   -2.5826 C   0  0  0  0  0  0  0  0  0  0  0  0
  -14.4812   31.6609   -3.5482 C   0  0  0  0  0  0  0  0  0  0  0  0
  -16.1708   34.2602   -1.8432 N   0  0  0  0  0  0  0  0  0  0  0  0
  -13.2496   31.1873   -3.7667 N   0  0  0  0  0  0  0  0  0  0  0  0
  -14.7066   32.7391   -2.7857 N   0  0  0  0  0  0  0  0  0  0  0  0
  -17.0251   32.5382   -3.1393 N   0  0  0  0  0  0  0  0  0  0  0  0
  -16.4262   29.1762   -5.4744 N   0  0  0  0  0  0  0  0  0  0  0  0
  -17.7238   29.6595   -5.2458 C   0  0  0  0  0  0  0  0  0  0  0  0
  -17.9199   30.8041   -4.4383 N   0  0  0  0  0  0  0  0  0  0  0  0
  -16.8496   31.4360   -3.9101 C   0  0  0  0  0  0  0  0  0  0  0  0
  -15.5494   30.9737   -4.1378 C   0  0  0  0  0  0  0  0  0  0  0  0
  -15.3165   29.8429   -4.9184 C   0  0  0  0  0  0  0  0  0  0  0  0
  1  3  1  0  0  0  0
  1  5  1  0  0  0  0
  1  6  2  0  0  0  0
  2  5  2  0  0  0  0
  2 11  1  0  0  0  0
  2  4  1  0  0  0  0
  6 10  1  0  0  0  0
  7  8  2  0  0  0  0
  7 12  1  0  0  0  0
  8  9  1  0  0  0  0
  9 10  2  0  0  0  0
 10 11  1  0  0  0  0
 11 12  2  0  0  0  0
M  END
>  <CHROM.1>
-15.94653495,31.47958785,-3.79736067,1.29605991,-0.06976216,0.61893424

>  <Name>
ligand

>  <RI>
0

>  <Rbt.Current_Directory>
/home/itssahil/PROJECTS/Mol_Feturizer/Test_systems_manuscript/rnas/4lx5

>  <Rbt.Executable>
rbdock ($Id: //depot/dev/client3/rdock/2013.1/src/exe/rbdock.cxx#4 $)

>  <Rbt.Library>
libRbt.so (2013.1, Build901 2013/11/27)

>  <Rbt.Parameter_File>
/export/apps/rDock/src/rDock_2013.1_src/data/scripts/dock_solv.prm

>  <Rbt.Receptor>
prm/blind_docking_40.prm

>  <SCORE>
-6.91924

>  <SCORE.INTER>
-6.91924

>  <SCORE.INTER.CONST>
1

>  <SCORE.INTER.POLAR>
0

>  <SCORE.INTER.ROT>
0

>  <SCORE.INTER.SOLV>
3.10274

>  <SCORE.INTER.VDW>
-9.24708

>  <SCORE.INTER.norm>
-0.576604

>  <SCORE.INTRA>
0

>  <SCORE.INTRA.DIHEDRAL>
0

>  <SCORE.INTRA.DIHEDRAL.0>
0

>  <SCORE.INTRA.POLAR>
0

>  <SCORE.INTRA.POLAR.0>
0

>  <SCORE.INTRA.REPUL>
0

>  <SCORE.INTRA.REPUL.0>
0

>  <SCORE.INTRA.SOLV>
0

>  <SCORE.INTRA.SOLV.lig_0>
-48.1583

>  <SCORE.INTRA.VDW>
0

>  <SCORE.INTRA.VDW.0>
0

>  <SCORE.INTRA.norm>
0

>  <SCORE.RESTR>
0

>  <SCORE.RESTR.CAVITY>
0

>  <SCORE.RESTR.norm>
0

>  <SCORE.SYSTEM>
0

>  <SCORE.SYSTEM.CONST>
0

>  <SCORE.SYSTEM.DIHEDRAL>
0

>  <SCORE.SYSTEM.SOLV>
0

>  <SCORE.SYSTEM.norm>
0

>  <SCORE.heavy>
12

>  <SCORE.norm>
-0.576604

>  <RMSD>
27.394

$$$$
