@<TRIPOS>MOLECULE
4lx5_rdock.pdb
 1502 1677 0 0 0
SMALL
GASTEIGER

@<TRIPOS>ATOM
      1  P         23.7660    7.4460    2.1670 P.3    13  G13         0.1280
      2  C5'       23.9230    7.5530   -0.4710 C.3    13  G13         0.1795
      3  O5'       24.1940    6.8550    0.7420 O.3    13  G13        -0.3259
      4  C4'       24.0500    6.6710   -1.6990 C.3    13  G13         0.1772
      5  O4'       24.8700    5.5060   -1.4060 O.3    13  G13        -0.3307
      6  C3'       22.7570    6.0780   -2.2420 C.3    13  G13         0.1860
      7  O3'       22.0130    6.9810   -3.0380 O.3    13  G13        -0.3112
      8  C2'       23.2370    4.8510   -3.0050 C.3    13  G13         0.2309
      9  O2'       23.7730    5.2160   -4.2690 O.3    13  G13        -0.2156
     10  C1'       24.3870    4.3810   -2.1180 C.3    13  G13         0.2408
     11  N1        22.5860   -0.3670   -1.2750 N.ar   13  G13        -0.1709
     12  C2        22.8200    0.2560   -2.4770 C.ar   13  G13         0.2606
     13  N2        22.5360   -0.4850   -3.5630 N.pl3  13  G13        -0.0859
     14  N3        23.2850    1.4990   -2.5930 N.ar   13  G13        -0.1918
     15  C4        23.5000    2.0780   -1.3840 C.ar   13  G13         0.1723
     16  C5        23.2920    1.5300   -0.1270 C.ar   13  G13         0.1748
     17  C6        22.7930    0.1990   -0.0220 C.ar   13  G13         0.3023
     18  O6        22.5420   -0.4580    0.9990 O.2    13  G13        -0.2633
     19  N7        23.6280    2.4310    0.8740 N.ar   13  G13        -0.2173
     20  C8        24.0260    3.4840    0.2230 C.ar   13  G13         0.1817
     21  N9        23.9750    3.3490   -1.1440 N.ar   13  G13        -0.2693
     22  OP1       23.6250    8.9290    2.0750 O.3    13  G13        -0.1955
     23  OP2       22.6270    6.6350    2.6950 O.co2  13  G13        -0.7863
     24  P         20.4100    6.9850   -2.9350 P.3    14  G14         0.2141
     25  C5'       20.1750    5.5610   -5.1460 C.3    14  G14         0.1812
     26  O5'       19.9640    5.6820   -3.7430 O.3    14  G14        -0.3114
     27  C4'       19.6660    4.2360   -5.6660 C.3    14  G14         0.1773
     28  O4'       20.4860    3.1640   -5.1340 O.3    14  G14        -0.3307
     29  C3'       18.2440    3.8690   -5.2540 C.3    14  G14         0.1860
     30  O3'       17.2570    4.4290   -6.1030 O.3    14  G14        -0.3112
     31  C2'       18.2570    2.3480   -5.2730 C.3    14  G14         0.2309
     32  O2'       18.0860    1.8670   -6.5980 O.3    14  G14        -0.2156
     33  C1'       19.6840    2.0480   -4.8060 C.3    14  G14         0.2408
     34  N1        18.9830   -1.1070   -0.8240 N.ar   14  G14        -0.1709
     35  C2        18.7620   -1.3330   -2.1660 C.ar   14  G14         0.2606
     36  N2        18.2950   -2.5480   -2.4960 N.pl3  14  G14        -0.0859
     37  N3        18.9780   -0.4370   -3.1200 N.ar   14  G14        -0.1918
     38  C4        19.4420    0.7260   -2.6160 C.ar   14  G14         0.1723
     39  C5        19.6950    1.0530   -1.2900 C.ar   14  G14         0.1748
     40  C6        19.4590    0.0820   -0.2750 C.ar   14  G14         0.3023
     41  O6        19.6280    0.1870    0.9520 O.2    14  G14        -0.2633
     42  N7        20.1680    2.3550   -1.1810 N.ar   14  G14        -0.2173
     43  C8        20.1910    2.7800   -2.4180 C.ar   14  G14         0.1817
     44  N9        19.7650    1.8490   -3.3430 N.ar   14  G14        -0.2693
     45  OP1       19.8740    8.1820   -3.6370 O.2    14  G14        -0.5172
     46  OP2       20.0800    6.7780   -1.4980 O.co2  14  G14        -0.4373
     47  P         15.9080    5.0350   -5.4750 P.3    15  C15         0.2141
     48  C5'       14.7450    2.8530   -6.3280 C.3    15  C15         0.1812
     49  O5'       14.9810    3.7580   -5.2610 O.3    15  C15        -0.3114
     50  C4'       14.3160    1.4990   -5.8240 C.3    15  C15         0.1773
     51  O4'       15.4130    0.8570   -5.1230 O.3    15  C15        -0.3307
     52  C3'       13.1830    1.4800   -4.8090 C.3    15  C15         0.1860
     53  O3'       11.9050    1.6450   -5.3930 O.3    15  C15        -0.3112
     54  C2'       13.3800    0.1300   -4.1340 C.3    15  C15         0.2309
     55  O2'       12.9190   -0.9220   -4.9670 O.3    15  C15        -0.2156
     56  C1'       14.9050    0.0490   -4.0790 C.3    15  C15         0.2420
     57  N1        15.4310    0.5380   -2.7840 N.ar   15  C15        -0.2535
     58  C2        15.4570   -0.3670   -1.7180 C.ar   15  C15         0.3532
     59  O2        15.0520   -1.5270   -1.9100 O.2    15  C15        -0.2443
     60  N3        15.9250    0.0450   -0.5150 N.ar   15  C15        -0.1739
     61  C4        16.3540    1.3010   -0.3530 C.ar   15  C15         0.1759
     62  N4        16.8110    1.6540    0.8540 N.pl3  15  C15        -0.1070
     63  C5        16.3290    2.2470   -1.4230 C.ar   15  C15         0.0566
     64  C6        15.8640    1.8260   -2.6100 C.ar   15  C15         0.0850
     65  OP1       15.2800    5.8970   -6.5090 O.2    15  C15        -0.5172
     66  OP2       16.2290    5.6030   -4.1380 O.co2  15  C15        -0.4373
     67  P         10.7500    2.4390   -4.6040 P.3    16  U16         0.2141
     68  C5'        9.8940    0.1270   -3.7750 C.3    16  U16         0.1812
     69  O5'       10.3290    1.4350   -3.4460 O.3    16  U16        -0.3114
     70  C4'        9.7850   -0.7390   -2.5520 C.3    16  U16         0.1773
     71  O4'       11.1040   -1.0010   -1.9980 O.3    16  U16        -0.3307
     72  C3'        9.0200   -0.1430   -1.3840 C.3    16  U16         0.1860
     73  O3'        7.6160   -0.1820   -1.5560 O.3    16  U16        -0.3112
     74  C2'        9.5270   -0.9750   -0.2150 C.3    16  U16         0.2309
     75  O2'        8.9120   -2.2540   -0.2080 O.3    16  U16        -0.2156
     76  C1'       11.0030   -1.1500   -0.5940 C.3    16  U16         0.2420
     77  N1        11.8460   -0.1290    0.0630 N.ar   16  U16        -0.2534
     78  C2        12.1740   -0.3500    1.3920 C.ar   16  U16         0.3546
     79  O2        11.8170   -1.3430    2.0130 O.2    16  U16        -0.2443
     80  N3        12.9450    0.6290    1.9680 N.ar   16  U16        -0.1530
     81  C4        13.4020    1.7820    1.3630 C.ar   16  U16         0.2846
     82  O4        14.0880    2.5720    2.0160 O.2    16  U16        -0.2650
     83  C5        13.0110    1.9390   -0.0080 C.ar   16  U16         0.0814
     84  C6        12.2630    1.0030   -0.5990 C.ar   16  U16         0.0870
     85  OP1        9.6050    2.5540   -5.5450 O.2    16  U16        -0.5172
     86  OP2       11.2900    3.6650   -3.9650 O.co2  16  U16        -0.4373
     87  P          6.6700    0.7860   -0.6880 P.3    17  U17         0.2141
     88  C5'        6.1630    0.5060    1.8470 C.3    17  U17         0.1812
     89  O5'        6.2870   -0.0990    0.5750 O.3    17  U17        -0.3114
     90  C4'        6.6030   -0.4110    2.9570 C.3    17  U17         0.1773
     91  O4'        8.0260   -0.6810    2.8420 O.3    17  U17        -0.3307
     92  C3'        6.4400    0.1790    4.3450 C.3    17  U17         0.1860
     93  O3'        5.1330    0.0000    4.8460 O.3    17  U17        -0.3112
     94  C2'        7.5130   -0.5280    5.1520 C.3    17  U17         0.2309
     95  O2'        7.0840   -1.8330    5.5140 O.3    17  U17        -0.2156
     96  C1'        8.6320   -0.6430    4.1170 C.3    17  U17         0.2420
     97  N1         9.5360    0.5280    4.1350 N.ar   17  U17        -0.2534
     98  C2        10.3240    0.7990    5.2470 C.ar   17  U17         0.3546
     99  O2        10.3250    0.1330    6.2680 O.2    17  U17        -0.2443
    100  N3        11.1240    1.9110    5.1280 N.ar   17  U17        -0.1530
    101  C4        11.2180    2.7580    4.0440 C.ar   17  U17         0.2846
    102  O4        11.9870    3.7160    4.0930 O.2    17  U17        -0.2650
    103  C5        10.3770    2.4120    2.9390 C.ar   17  U17         0.0814
    104  C6         9.5920    1.3340    3.0190 C.ar   17  U17         0.0870
    105  OP1        5.4350    1.0570   -1.4670 O.2    17  U17        -0.5172
    106  OP2        7.4710    1.9200   -0.1660 O.co2  17  U17        -0.4373
    107  P          4.2290    1.2870    5.1480 P.3    18  C18         0.2141
    108  C5'        4.6710    0.4530    7.5780 C.3    18  C18         0.1812
    109  O5'        4.5070    1.5510    6.6930 O.3    18  C18        -0.3114
    110  C4'        5.5660    0.7950    8.7400 C.3    18  C18         0.1773
    111  O4'        6.9630    0.7520    8.3500 O.3    18  C18        -0.3307
    112  C3'        5.4040    2.1840    9.3220 C.3    18  C18         0.1860
    113  O3'        4.2600    2.3040   10.1390 O.3    18  C18        -0.3112
    114  C2'        6.7180    2.3750   10.0660 C.3    18  C18         0.2309
    115  O2'        6.7090    1.6540   11.2900 O.3    18  C18        -0.2156
    116  C1'        7.6980    1.6940    9.1090 C.3    18  C18         0.2420
    117  N1         8.3150    2.6650    8.1810 N.ar   18  C18        -0.2535
    118  C2         9.3680    3.4620    8.6370 C.ar   18  C18         0.3532
    119  O2         9.7630    3.3310    9.8080 O.2    18  C18        -0.2443
    120  N3         9.9340    4.3500    7.7820 N.ar   18  C18        -0.1739
    121  C4         9.4740    4.4630    6.5300 C.ar   18  C18         0.1759
    122  N4        10.0590    5.3530    5.7200 N.pl3  18  C18        -0.1070
    123  C5         8.3960    3.6630    6.0480 C.ar   18  C18         0.0566
    124  C6         7.8490    2.7880    6.9000 C.ar   18  C18         0.0850
    125  OP1        2.8040    0.9110    4.9530 O.3    18  C18        -0.4373
    126  OP2        4.7990    2.4130    4.3620 O.co2  18  C18        -0.5172
    127  P          3.5000    3.7100   10.2420 P.3    19  A19         0.2141
    128  C5'        4.8650    4.1120   12.4210 C.3    19  A19         0.1812
    129  O5'        4.4670    4.5810   11.1470 O.3    19  A19        -0.3114
    130  C4'        5.9200    5.0070   12.9930 C.3    19  A19         0.1773
    131  O4'        7.1700    4.8030   12.2870 O.3    19  A19        -0.3307
    132  C3'        5.6590    6.4860   12.8270 C.3    19  A19         0.1860
    133  O3'        4.7200    6.9950   13.7510 O.3    19  A19        -0.3112
    134  C2'        7.0560    7.0670   12.9530 C.3    19  A19         0.2309
    135  O2'        7.4840    7.0410   14.3060 O.3    19  A19        -0.2156
    136  C1'        7.8640    6.0270   12.1850 C.3    19  A19         0.2408
    137  N1        10.5200    8.7780    8.7660 N.ar   19  A19        -0.2040
    138  C2        10.6320    8.6070   10.0880 C.ar   19  A19         0.2016
    139  N3         9.8980    7.8610   10.9120 N.ar   19  A19        -0.2048
    140  C4         8.9220    7.2330   10.2360 C.ar   19  A19         0.1692
    141  C5         8.6670    7.3020    8.8780 C.ar   19  A19         0.1518
    142  C6         9.5270    8.1250    8.1140 C.ar   19  A19         0.1919
    143  N6         9.4250    8.3100    6.7920 N.pl3  19  A19        -0.1054
    144  N7         7.5690    6.5090    8.5540 N.ar   19  A19        -0.2193
    145  C8         7.1930    5.9920    9.7010 C.ar   19  A19         0.1816
    146  N9         7.9800    6.3850   10.7590 N.ar   19  A19        -0.2693
    147  OP1        2.2620    3.4730   11.0240 O.3    19  A19        -0.4373
    148  OP2        3.4700    4.3550    8.9010 O.co2  19  A19        -0.5172
    149  P          3.7680    8.2150   13.3160 P.3    20  U20         0.2141
    150  C5'        5.5230    9.7590   14.4880 C.3    20  U20         0.1812
    151  O5'        4.7480    9.4650   13.3370 O.3    20  U20        -0.3114
    152  C4'        6.5060   10.8630   14.2070 C.3    20  U20         0.1773
    153  O4'        7.5290   10.3920   13.2890 O.3    20  U20        -0.3307
    154  C3'        5.9300   12.0840   13.5160 C.3    20  U20         0.1860
    155  O3'        5.2440   12.9610   14.3920 O.3    20  U20        -0.3112
    156  C2'        7.1550   12.6950   12.8490 C.3    20  U20         0.2309
    157  O2'        7.9400   13.4230   13.7790 O.3    20  U20        -0.2156
    158  C1'        7.9310   11.4430   12.4350 C.3    20  U20         0.2420
    159  N1         7.6410   11.0710   11.0300 N.ar   20  U20        -0.2534
    160  C2         8.4200   11.6580   10.0450 C.ar   20  U20         0.3546
    161  O2         9.3330   12.4320   10.2930 O.2    20  U20        -0.2443
    162  N3         8.1040   11.2980    8.7540 N.ar   20  U20        -0.1530
    163  C4         7.1050   10.4390    8.3550 C.ar   20  U20         0.2846
    164  O4         6.9490   10.2160    7.1540 O.2    20  U20        -0.2650
    165  C5         6.3320    9.8830    9.4280 C.ar   20  U20         0.0814
    166  C6         6.6190   10.2120   10.6940 C.ar   20  U20         0.0870
    167  OP1        2.7500    8.4300   14.3710 O.3    20  U20        -0.4373
    168  OP2        3.3350    7.9930   11.9110 O.co2  20  U20        -0.5172
    169  P          4.0180   13.8400   13.8330 P.3    21  A21         0.2141
    170  C5'        5.4880   15.8520   12.9930 C.3    21  A21         0.1812
    171  O5'        4.6790   14.7290   12.6880 O.3    21  A21        -0.3114
    172  C4'        5.9190   16.5680   11.7380 C.3    21  A21         0.1773
    173  O4'        6.7110   15.6910   10.9000 O.3    21  A21        -0.3307
    174  C3'        4.8180   17.0390   10.8030 C.3    21  A21         0.1860
    175  O3'        4.1470   18.2040   11.2650 O.3    21  A21        -0.3112
    176  C2'        5.5650   17.2310    9.4770 C.3    21  A21         0.2309
    177  O2'        6.2050   18.4920    9.4100 O.3    21  A21        -0.2156
    178  C1'        6.6550   16.1550    9.5570 C.3    21  A21         0.2408
    179  N1         7.6900   14.2030    4.8910 N.ar   21  A21        -0.2040
    180  C2         8.1550   15.2900    5.5330 C.ar   21  A21         0.2016
    181  N3         7.8460   15.7380    6.7550 N.ar   21  A21        -0.2048
    182  C4         6.9390   14.9380    7.3550 C.ar   21  A21         0.1692
    183  C5         6.3820   13.7910    6.8230 C.ar   21  A21         0.1518
    184  C6         6.7770   13.4300    5.5340 C.ar   21  A21         0.1919
    185  N6         6.2970   12.3430    4.9390 N.pl3  21  A21        -0.1054
    186  N7         5.4850   13.2140    7.7140 N.ar   21  A21        -0.2193
    187  C8         5.5170   14.0050    8.7550 C.ar   21  A21         0.1816
    188  N9         6.3890   15.0550    8.6150 N.ar   21  A21        -0.2693
    189  OP1        3.5100   14.7540   14.8970 O.3    21  A21        -0.4373
    190  OP2        3.0860   12.9050   13.1490 O.co2  21  A21        -0.5172
    191  P          2.6530   18.1040   11.8580 P.3    22  U22         0.2141
    192  C5'        0.5310   17.2470   10.5330 C.3    22  U22         0.1812
    193  O5'        1.7870   17.9180   10.5350 O.3    22  U22        -0.3114
    194  C4'        0.2200   16.7580    9.1420 C.3    22  U22         0.1773
    195  O4'        0.4260   17.8640    8.2130 O.3    22  U22        -0.3307
    196  C3'        1.1280   15.6410    8.6620 C.3    22  U22         0.1860
    197  O3'        0.4310   14.8560    7.6940 O.3    22  U22        -0.3112
    198  C2'        2.2520   16.4110    7.9770 C.3    22  U22         0.2309
    199  O2'        2.9860   15.6600    7.0450 O.3    22  U22        -0.2156
    200  C1'        1.4760   17.5560    7.3210 C.3    22  U22         0.2420
    201  N1         2.2790   18.7730    7.1020 N.ar   22  U22        -0.2534
    202  C2         2.6330   19.0520    5.7970 C.ar   22  U22         0.3546
    203  O2         2.2820   18.3420    4.8730 O.2    22  U22        -0.2443
    204  N3         3.4170   20.1670    5.6060 N.ar   22  U22        -0.1530
    205  C4         3.8540   21.0460    6.5820 C.ar   22  U22         0.2846
    206  O4         4.5600   22.0140    6.2490 O.2    22  U22        -0.2650
    207  C5         3.4520   20.6930    7.9190 C.ar   22  U22         0.0814
    208  C6         2.6980   19.5970    8.1310 C.ar   22  U22         0.0870
    209  OP1        2.3180   19.4280   12.4320 O.2    22  U22        -0.5172
    210  OP2        2.5070   16.9050   12.7170 O.co2  22  U22        -0.4373
    211  P         -0.1270   13.3980    8.0750 P.3    23  A23         0.2141
    212  C5'       -1.9200   14.0300    6.3120 C.3    23  A23         0.1812
    213  O5'       -1.6170   13.4000    7.5360 O.3    23  A23        -0.3114
    214  C4'       -3.2150   14.7880    6.3870 C.3    23  A23         0.1773
    215  O4'       -3.1990   15.7040    7.5030 O.3    23  A23        -0.3307
    216  C3'       -3.5030   15.6680    5.1890 C.3    23  A23         0.1860
    217  O3'       -4.0570   14.9100    4.1320 O.3    23  A23        -0.3112
    218  C2'       -4.4590   16.7170    5.7460 C.3    23  A23         0.2309
    219  O2'       -5.7940   16.2400    5.7250 O.3    23  A23        -0.2156
    220  C1'       -4.0070   16.8220    7.2120 C.3    23  A23         0.2408
    221  N1        -0.4790   20.4070    5.8210 N.ar   23  A23        -0.2040
    222  C2        -0.9340   19.3210    5.1750 C.ar   23  A23         0.2016
    223  N3        -1.8480   18.4270    5.5490 N.ar   23  A23        -0.2048
    224  C4        -2.3120   18.7240    6.7810 C.ar   23  A23         0.1692
    225  C5        -1.9290   19.8020    7.5690 C.ar   23  A23         0.1518
    226  C6        -0.9630   20.6720    7.0560 C.ar   23  A23         0.1919
    227  N6        -0.5000   21.7540    7.7020 N.pl3  23  A23        -0.1054
    228  N7        -2.6140   19.8070    8.7670 N.ar   23  A23        -0.2193
    229  C8        -3.3750   18.7530    8.6920 C.ar   23  A23         0.1816
    230  N9        -3.2540   18.0520    7.5210 N.ar   23  A23        -0.2693
    231  OP1       -0.2390   13.2620    9.5560 O.3    23  A23        -0.4373
    232  OP2        0.6410   12.4290    7.2470 O.co2  23  A23        -0.5172
    233  P         -3.2360   14.6450    2.7710 P.3    24  A24         0.2141
    234  C5'       -2.3840   17.1290    2.3760 C.3    24  A24         0.1812
    235  O5'       -3.2770   16.0730    2.0370 O.3    24  A24        -0.3114
    236  C4'       -1.6560   17.6540    1.1640 C.3    24  A24         0.1773
    237  O4'       -0.6700   16.6920    0.7200 O.3    24  A24        -0.3307
    238  C3'       -2.4880   17.9370   -0.0810 C.3    24  A24         0.1860
    239  O3'       -3.0950   19.2030   -0.0010 O.3    24  A24        -0.3112
    240  C2'       -1.4380   17.8850   -1.1900 C.3    24  A24         0.2309
    241  O2'       -0.6830   19.1070   -1.1950 O.3    24  A24        -0.2156
    242  C1'       -0.5170   16.7790   -0.6840 C.3    24  A24         0.2408
    243  N1         0.0110   13.7180   -4.7980 N.ar   24  A24        -0.2040
    244  C2         0.2850   15.0190   -4.6030 C.ar   24  A24         0.2016
    245  N3         0.1120   15.7640   -3.5120 N.ar   24  A24        -0.2048
    246  C4        -0.4080   15.0170   -2.5260 C.ar   24  A24         0.1692
    247  C5        -0.7470   13.6720   -2.5760 C.ar   24  A24         0.1518
    248  C6        -0.5240   12.9920   -3.7940 C.ar   24  A24         0.1919
    249  N6        -0.7810   11.6910   -4.0040 N.pl3  24  A24        -0.1054
    250  N7        -1.2650   13.2490   -1.3640 N.ar   24  A24        -0.2193
    251  C8        -1.2290   14.3290   -0.6080 C.ar   24  A24         0.1816
    252  N9        -0.7540   15.4460   -1.2640 N.ar   24  A24        -0.2693
    253  OP1       -4.0460   13.6860    1.9730 O.2    24  A24        -0.5172
    254  OP2       -1.8340   14.2680    3.0720 O.co2  24  A24        -0.4373
    255  P         -4.5990   19.4960   -0.4680 P.3    25  U25         0.2141
    256  C5'       -5.8290   18.8670    1.7830 C.3    25  U25         0.1812
    257  O5'       -5.3460   19.8750    0.8970 O.3    25  U25        -0.3114
    258  C4'       -5.8300   19.3500    3.2170 C.3    25  U25         0.1773
    259  O4'       -4.4670   19.4490    3.7170 O.3    25  U25        -0.3307
    260  C3'       -6.4140   20.7380    3.4550 C.3    25  U25         0.1860
    261  O3'       -7.8290   20.7270    3.5470 O.3    25  U25        -0.3112
    262  C2'       -5.7440   21.1560    4.7580 C.3    25  U25         0.2309
    263  O2'       -6.3600   20.4880    5.8560 O.3    25  U25        -0.2156
    264  C1'       -4.3440   20.5730    4.5710 C.3    25  U25         0.2420
    265  N1        -3.4030   21.5570    3.9690 N.ar   25  U25        -0.2534
    266  C2        -2.9760   22.5760    4.8040 C.ar   25  U25         0.3546
    267  O2        -3.3730   22.6380    5.9420 O.2    25  U25        -0.2443
    268  N3        -2.1170   23.5110    4.2730 N.ar   25  U25        -0.1530
    269  C4        -1.6270   23.4800    2.9630 C.ar   25  U25         0.2846
    270  O4        -0.8400   24.3500    2.5610 O.2    25  U25        -0.2650
    271  C5        -2.1030   22.3880    2.1590 C.ar   25  U25         0.0814
    272  C6        -2.9530   21.4870    2.6660 C.ar   25  U25         0.0870
    273  OP1       -5.2130   18.2710   -1.0430 O.3    25  U25        -0.4373
    274  OP2       -4.5050   20.7450   -1.2670 O.co2  25  U25        -0.5172
    275  P         -8.6920   21.9780    3.0100 P.3    26  C26         0.2141
    276  C5'       -8.7950   22.7940    5.4770 C.3    26  C26         0.1812
    277  O5'       -8.4540   23.0740    4.1300 O.3    26  C26        -0.3114
    278  C4'       -8.2330   23.8600    6.3720 C.3    26  C26         0.1773
    279  O4'       -6.7790   23.8040    6.3430 O.3    26  C26        -0.3307
    280  C3'       -8.5460   25.2760    5.9360 C.3    26  C26         0.1860
    281  O3'       -9.8680   25.6820    6.3050 O.3    26  C26        -0.3112
    282  C2'       -7.4270   26.0650    6.6080 C.3    26  C26         0.2309
    283  O2'       -7.6740   26.1850    8.0020 O.3    26  C26        -0.2156
    284  C1'       -6.2500   25.1070    6.4300 C.3    26  C26         0.2420
    285  N1        -5.4740   25.3970    5.1980 N.ar   26  C26        -0.2535
    286  C2        -4.5290   26.4100    5.3210 C.ar   26  C26         0.3532
    287  O2        -4.4090   26.9480    6.4300 O.2    26  C26        -0.2443
    288  N3        -3.7700   26.7660    4.2630 N.ar   26  C26        -0.1739
    289  C4        -3.9540   26.1420    3.0990 C.ar   26  C26         0.1759
    290  N4        -3.1710   26.5390    2.0900 N.pl3  26  C26        -0.1070
    291  C5        -4.9280   25.0950    2.9240 C.ar   26  C26         0.0566
    292  C6        -5.6660   24.7560    4.0000 C.ar   26  C26         0.0850
    293  OP1      -10.1240   21.5840    3.1120 O.3    26  C26        -0.4373
    294  OP2       -8.0870   22.4890    1.7600 O.co2  26  C26        -0.5172
    295  P        -10.5900   26.8550    5.4860 P.3    27  C27         0.2141
    296  C5'       -9.8040   28.5080    7.3570 C.3    27  C27         0.1812
    297  O5'       -9.8410   28.1830    5.9730 O.3    27  C27        -0.3114
    298  C4'       -8.9660   29.7410    7.5810 C.3    27  C27         0.1773
    299  O4'       -7.5580   29.4470    7.3520 O.3    27  C27        -0.3307
    300  C3'       -9.2530   30.8970    6.6400 C.3    27  C27         0.1860
    301  O3'      -10.4200   31.6270    7.0190 O.3    27  C27        -0.3112
    302  C2'       -7.9570   31.6990    6.7100 C.3    27  C27         0.2309
    303  O2'       -7.9060   32.4470    7.9280 O.3    27  C27        -0.2156
    304  C1'       -6.9180   30.5790    6.7870 C.3    27  C27         0.2420
    305  N1        -6.4230   30.2060    5.4420 N.ar   27  C27        -0.2535
    306  C2        -5.4430   31.0170    4.8400 C.ar   27  C27         0.3532
    307  O2        -5.0230   32.0040    5.4670 O.2    27  C27        -0.2443
    308  N3        -4.9720   30.7120    3.6010 N.ar   27  C27        -0.1739
    309  C4        -5.4600   29.6480    2.9560 C.ar   27  C27         0.1759
    310  N4        -4.9750   29.3740    1.7360 N.pl3  27  C27        -0.1070
    311  C5        -6.4670   28.8160    3.5360 C.ar   27  C27         0.0566
    312  C6        -6.9190   29.1330    4.7620 C.ar   27  C27         0.0850
    313  OP1      -12.0000   26.8570    5.9840 O.3    27  C27        -0.4373
    314  OP2      -10.2530   26.6960    4.0400 O.co2  27  C27        -0.5172
    315  P        -11.2570   32.4350    5.9000 P.3    28  G28         0.2141
    316  C5'      -10.0100   34.6340    6.5360 C.3    28  G28         0.1812
    317  O5'      -10.3230   33.6730    5.5410 O.3    28  G28        -0.3114
    318  C4'       -9.0000   35.6150    6.0270 C.3    28  G28         0.1773
    319  O4'       -7.7780   34.9200    5.6800 O.3    28  G28        -0.3307
    320  C3'       -9.3930   36.3180    4.7470 C.3    28  G28         0.1860
    321  O3'      -10.2820   37.3960    4.9770 O.3    28  G28        -0.3112
    322  C2'       -8.0460   36.7270    4.1610 C.3    28  G28         0.2309
    323  O2'       -7.5420   37.8830    4.8050 O.3    28  G28        -0.2156
    324  C1'       -7.1710   35.5480    4.5690 C.3    28  G28         0.2408
    325  N1        -4.8490   34.4580    0.1740 N.ar   28  G28        -0.1709
    326  C2        -4.7460   35.5810    0.9640 C.ar   28  G28         0.2606
    327  N2        -3.9150   36.5480    0.5460 N.pl3  28  G28        -0.0859
    328  N3        -5.4100   35.7400    2.1010 N.ar   28  G28        -0.1918
    329  C4        -6.2090   34.6900    2.3900 C.ar   28  G28         0.1723
    330  C5        -6.4000   33.5340    1.6680 C.ar   28  G28         0.1748
    331  C6        -5.6790   33.3720    0.4600 C.ar   28  G28         0.3023
    332  O6        -5.7200   32.3990   -0.2960 O.2    28  G28        -0.2633
    333  N7        -7.3120   32.6890    2.2990 N.ar   28  G28        -0.2173
    334  C8        -7.6560   33.3400    3.3770 C.ar   28  G28         0.1817
    335  N9        -7.0300   34.5620    3.4840 N.ar   28  G28        -0.2693
    336  OP1      -12.4850   32.9820    6.5400 O.3    28  G28        -0.4373
    337  OP2      -11.3140   31.5700    4.6860 O.co2  28  G28        -0.5172
    338  P        -11.3250   37.8300    3.8360 P.3    29  A29         0.2141
    339  C5'       -9.5910   39.7050    3.2760 C.3    29  A29         0.1812
    340  O5'      -10.4210   38.6510    2.8140 O.3    29  A29        -0.3114
    341  C4'       -8.6610   40.1580    2.1890 C.3    29  A29         0.1773
    342  O4'       -7.6250   39.1690    1.9670 O.3    29  A29        -0.3307
    343  C3'       -9.3080   40.3230    0.8290 C.3    29  A29         0.1860
    344  O3'       -9.9930   41.5540    0.7270 O.3    29  A29        -0.3112
    345  C2'       -8.1250   40.1870   -0.1150 C.3    29  A29         0.2309
    346  O2'       -7.3510   41.3750   -0.1200 O.3    29  A29        -0.2156
    347  C1'       -7.3130   39.1060    0.5920 C.3    29  A29         0.2408
    348  N1        -6.4700   35.6520   -3.0590 N.ar   29  A29        -0.2040
    349  C2        -6.0040   36.8890   -2.8630 C.ar   29  A29         0.2016
    350  N3        -6.2800   37.7410   -1.8720 N.ar   29  A29        -0.2048
    351  C4        -7.1530   37.1880   -1.0170 C.ar   29  A29         0.1692
    352  C5        -7.7260   35.9290   -1.0750 C.ar   29  A29         0.1518
    353  C6        -7.3570   35.1360   -2.1670 C.ar   29  A29         0.1919
    354  N6        -7.8200   33.9010   -2.3660 N.pl3  29  A29        -0.1054
    355  N7        -8.5850   35.7160    0.0030 N.ar   29  A29        -0.2193
    356  C8        -8.5090   36.8370    0.6810 C.ar   29  A29         0.1816
    357  N9        -7.6570   37.7620    0.1100 N.ar   29  A29        -0.2693
    358  OP1      -12.3090   38.7590    4.4620 O.3    29  A29        -0.4373
    359  OP2      -11.7690   36.6220    3.0980 O.co2  29  A29        -0.5172
    360  P        -11.3490   41.6640   -0.1210 P.3    30  A30         0.2141
    361  C5'      -11.1120   41.5600   -2.6940 C.3    30  A30         0.1812
    362  O5'      -10.8250   42.2330   -1.4980 O.3    30  A30        -0.3114
    363  C4'       -9.9200   41.5730   -3.5970 C.3    30  A30         0.1773
    364  O4'       -8.9550   40.5940   -3.1340 O.3    30  A30        -0.3307
    365  C3'      -10.2480   41.1600   -5.0140 C.3    30  A30         0.1860
    366  O3'      -10.6310   42.2620   -5.7960 O.3    30  A30        -0.3112
    367  C2'       -8.9790   40.5000   -5.4980 C.3    30  A30         0.2309
    368  O2'       -8.0620   41.4930   -5.9210 O.3    30  A30        -0.2156
    369  C1'       -8.4790   39.8400   -4.2180 C.3    30  A30         0.2408
    370  N1        -8.6810   35.0900   -6.1500 N.ar   30  A30        -0.2040
    371  C2        -8.0360   36.2000   -6.5560 C.ar   30  A30         0.2016
    372  N3        -8.0380   37.4110   -6.0010 N.ar   30  A30        -0.2048
    373  C4        -8.8110   37.4230   -4.9000 C.ar   30  A30         0.1692
    374  C5        -9.5220   36.3710   -4.3560 C.ar   30  A30         0.1518
    375  C6        -9.4360   35.1360   -5.0280 C.ar   30  A30         0.1919
    376  N6       -10.0830   34.0260   -4.6520 N.pl3  30  A30        -0.1054
    377  N7       -10.1880   36.7740   -3.2030 N.ar   30  A30        -0.2193
    378  C8        -9.8690   38.0400   -3.0760 C.ar   30  A30         0.1816
    379  N9        -9.0340   38.4870   -4.0680 N.ar   30  A30        -0.2693
    380  OP1      -12.1870   42.7300    0.4850 O.3    30  A30        -0.4373
    381  OP2      -11.9190   40.3160   -0.3890 O.co2  30  A30        -0.5172
    382  P        -11.9730   42.1470   -6.6410 P.3    31  U31         0.2141
    383  C5'      -10.5350   41.1590   -8.5760 C.3    31  U31         0.1812
    384  O5'      -11.6290   41.0170   -7.6970 O.3    31  U31        -0.3114
    385  C4'      -10.3370   39.8870   -9.3450 C.3    31  U31         0.1773
    386  O4'       -9.9040   38.8370   -8.4420 O.3    31  U31        -0.3307
    387  C3'      -11.5940   39.3150   -9.9690 C.3    31  U31         0.1860
    388  O3'      -11.9610   39.9580  -11.1720 O.3    31  U31        -0.3112
    389  C2'      -11.2230   37.8550  -10.1450 C.3    31  U31         0.2309
    390  O2'      -10.3280   37.7160  -11.2270 O.3    31  U31        -0.2156
    391  C1'      -10.4350   37.5980   -8.8690 C.3    31  U31         0.2420
    392  N1       -11.2850   37.0200   -7.8050 N.ar   31  U31        -0.2534
    393  C2       -11.5880   35.6690   -7.9300 C.ar   31  U31         0.3546
    394  O2       -11.2110   34.9660   -8.8680 O.2    31  U31        -0.2443
    395  N3       -12.3720   35.1750   -6.9220 N.ar   31  U31        -0.1530
    396  C4       -12.8620   35.8900   -5.8370 C.ar   31  U31         0.2846
    397  O4       -13.5400   35.3060   -5.0070 O.2    31  U31        -0.2650
    398  C5       -12.5030   37.2730   -5.7810 C.ar   31  U31         0.0814
    399  C6       -11.7350   37.7810   -6.7490 C.ar   31  U31         0.0870
    400  OP1      -12.1920   43.4140   -7.3880 O.2    31  U31        -0.5172
    401  OP2      -12.9980   41.5760   -5.7180 O.co2  31  U31        -0.4373
    402  P        -13.5160   40.0780  -11.5600 P.3    32  G32         0.2141
    403  C5'      -13.0970   37.9220  -13.0090 C.3    32  G32         0.1812
    404  O5'      -13.8840   38.6030  -12.0410 O.3    32  G32        -0.3114
    405  C4'      -13.5500   36.4940  -13.1440 C.3    32  G32         0.1773
    406  O4'      -13.1970   35.7370  -11.9550 O.3    32  G32        -0.3307
    407  C3'      -15.0500   36.3120  -13.2560 C.3    32  G32         0.1860
    408  O3'      -15.5280   36.6170  -14.5570 O.3    32  G32        -0.3112
    409  C2'      -15.2460   34.8680  -12.8050 C.3    32  G32         0.2309
    410  O2'      -14.9170   33.9600  -13.8480 O.3    32  G32        -0.2156
    411  C1'      -14.1750   34.7430  -11.7160 C.3    32  G32         0.2408
    412  N1       -16.1990   32.5130   -7.5500 N.ar   32  G32        -0.1709
    413  C2       -15.8410   31.9430   -8.7540 C.ar   32  G32         0.2606
    414  N2       -16.0350   30.6190   -8.8670 N.pl3  32  G32        -0.0859
    415  N3       -15.3230   32.6200   -9.7750 N.ar   32  G32        -0.1918
    416  C4       -15.1910   33.9390   -9.5060 C.ar   32  G32         0.1723
    417  C5       -15.5270   34.6030   -8.3440 C.ar   32  G32         0.1748
    418  C6       -16.0680   33.8700   -7.2530 C.ar   32  G32         0.3023
    419  O6       -16.4120   34.3150   -6.1510 O.2    32  G32        -0.2633
    420  N7       -15.2480   35.9560   -8.4480 N.ar   32  G32        -0.2173
    421  C8       -14.7590   36.0980   -9.6500 C.ar   32  G32         0.1817
    422  N9       -14.7020   34.9180  -10.3490 N.ar   32  G32        -0.2693
    423  OP1      -13.6340   41.0140  -12.7040 O.2    32  G32        -0.5172
    424  OP2      -14.3130   40.3430  -10.3310 O.co2  32  G32        -0.4373
    425  P        -17.1010   36.5690  -14.9120 P.3    33  A33         0.2141
    426  C5'      -18.6890   34.5140  -14.5950 C.3    33  A33         0.1812
    427  O5'      -17.4060   35.0090  -14.9110 O.3    33  A33        -0.3114
    428  C4'      -18.6930   33.0170  -14.6530 C.3    33  A33         0.1773
    429  O4'      -17.8900   32.4620  -13.5770 O.3    33  A33        -0.3307
    430  C3'      -20.0500   32.3740  -14.4850 C.3    33  A33         0.1860
    431  O3'      -20.7450   32.3530  -15.7150 O.3    33  A33        -0.3112
    432  C2'      -19.7070   30.9860  -13.9730 C.3    33  A33         0.2309
    433  O2'      -19.3130   30.1610  -15.0560 O.3    33  A33        -0.2156
    434  C1'      -18.4760   31.2670  -13.1110 C.3    33  A33         0.2408
    435  N1       -19.9350   29.0200   -8.6800 N.ar   33  A33        -0.2040
    436  C2       -19.7330   28.5410   -9.9150 C.ar   33  A33         0.2016
    437  N3       -19.3590   29.1590  -11.0320 N.ar   33  A33        -0.2048
    438  C4       -19.1820   30.4630  -10.7880 C.ar   33  A33         0.1692
    439  C5       -19.3460   31.1090   -9.5750 C.ar   33  A33         0.1518
    440  C6       -19.7420   30.3390   -8.4700 C.ar   33  A33         0.1919
    441  N6       -19.9360   30.8330   -7.2380 N.pl3  33  A33        -0.1054
    442  N7       -19.0750   32.4580   -9.7060 N.ar   33  A33        -0.2193
    443  C8       -18.7510   32.5970  -10.9630 C.ar   33  A33         0.1816
    444  N9       -18.8020   31.4330  -11.6810 N.ar   33  A33        -0.2693
    445  OP1      -17.2700   37.0110  -16.3240 O.2    33  A33        -0.5172
    446  OP2      -17.8920   37.2430  -13.8560 O.co2  33  A33        -0.4373
    447  P        -22.3420   32.4290  -15.7470 P.3    34  U34         0.2141
    448  C5'      -22.6250   29.8340  -15.6270 C.3    34  U34         0.1812
    449  O5'      -22.7880   31.1000  -14.9990 O.3    34  U34        -0.3114
    450  C4'      -23.0110   28.7120  -14.7030 C.3    34  U34         0.1773
    451  O4'      -22.4080   28.9410  -13.4030 O.3    34  U34        -0.3307
    452  C3'      -24.5090   28.5560  -14.4680 C.3    34  U34         0.1860
    453  O3'      -24.8580   27.1770  -14.4930 O.3    34  U34        -0.3112
    454  C2'      -24.7220   29.1500  -13.0770 C.3    34  U34         0.2309
    455  O2'      -25.7730   28.5660  -12.3460 O.3    34  U34        -0.2156
    456  C1'      -23.3920   28.8870  -12.3950 C.3    34  U34         0.2420
    457  N1       -23.0740   29.9060  -11.3900 N.ar   34  U34        -0.2534
    458  C2       -23.0780   29.5170  -10.0680 C.ar   34  U34         0.3546
    459  O2       -23.3080   28.3720   -9.7140 O.2    34  U34        -0.2443
    460  N3       -22.7920   30.5180   -9.1780 N.ar   34  U34        -0.1530
    461  C4       -22.5220   31.8420   -9.4660 C.ar   34  U34         0.2846
    462  O4       -22.2740   32.6190   -8.5400 O.2    34  U34        -0.2650
    463  C5       -22.5460   32.1670  -10.8610 C.ar   34  U34         0.0814
    464  C6       -22.8210   31.2100  -11.7550 C.ar   34  U34         0.0870
    465  OP1      -22.7780   32.2890  -17.1710 O.2    34  U34        -0.5172
    466  OP2      -22.7900   33.6020  -14.9500 O.co2  34  U34        -0.4373
    467  P        -25.5220   26.5960  -15.8310 P.3    35  A35         0.2141
    468  C5'      -24.2110   24.5200  -14.9110 C.3    35  A35         0.1812
    469  O5'      -25.0320   25.0780  -15.9140 O.3    35  A35        -0.3114
    470  C4'      -24.2410   23.0110  -14.9210 C.3    35  A35         0.1773
    471  O4'      -24.4360   22.5690  -13.5580 O.3    35  A35        -0.3307
    472  C3'      -25.3570   22.3680  -15.7300 C.3    35  A35         0.1860
    473  O3'      -24.9360   21.0520  -16.1120 O.3    35  A35        -0.3112
    474  C2'      -26.4890   22.2750  -14.7040 C.3    35  A35         0.2309
    475  O2'      -27.4270   21.2510  -14.9640 O.3    35  A35        -0.2156
    476  C1'      -25.7270   22.0090  -13.3980 C.3    35  A35         0.2408
    477  N1       -28.6090   21.5630   -9.1130 N.ar   35  A35        -0.2040
    478  C2       -28.2870   20.6830  -10.0680 C.ar   35  A35         0.2016
    479  N3       -27.5440   20.8540  -11.1590 N.ar   35  A35        -0.2048
    480  C4       -27.0880   22.1140  -11.2290 C.ar   35  A35         0.1692
    481  C5       -27.3360   23.1420  -10.3280 C.ar   35  A35         0.1518
    482  C6       -28.1470   22.8320   -9.2160 C.ar   35  A35         0.1919
    483  N6       -28.4700   23.7110   -8.2600 N.pl3  35  A35        -0.1054
    484  N7       -26.6980   24.3180  -10.7210 N.ar   35  A35        -0.2193
    485  C8       -26.0990   23.9740  -11.8360 C.ar   35  A35         0.1816
    486  N9       -26.3030   22.6610  -12.2150 N.ar   35  A35        -0.2693
    487  OP1      -24.8870   27.3210  -16.9580 O.2    35  A35        -0.5172
    488  OP2      -27.0020   26.6210  -15.6820 O.co2  35  A35        -0.4373
    489  P        -24.4690   20.7010  -17.6210 P.3    36  U36         0.2141
    490  C5'      -21.8740   20.7700  -18.0380 C.3    36  U36         0.1812
    491  O5'      -23.0950   21.4880  -17.8430 O.3    36  U36        -0.3114
    492  C4'      -20.9550   21.3930  -19.0730 C.3    36  U36         0.1773
    493  O4'      -21.5080   21.2280  -20.4080 O.3    36  U36        -0.3307
    494  C3'      -20.6440   22.8860  -18.9180 C.3    36  U36         0.1860
    495  O3'      -19.2850   23.1130  -19.2770 O.3    36  U36        -0.3112
    496  C2'      -21.5300   23.5350  -19.9740 C.3    36  U36         0.2309
    497  O2'      -21.0430   24.7740  -20.4500 O.3    36  U36        -0.2156
    498  C1'      -21.5280   22.4750  -21.0740 C.3    36  U36         0.2420
    499  N1       -22.7160   22.5120  -21.9400 N.ar   36  U36        -0.2534
    500  C2       -22.5470   22.3930  -23.3140 C.ar   36  U36         0.3546
    501  O2       -21.4580   22.2530  -23.8500 O.2    36  U36        -0.2443
    502  N3       -23.7130   22.4330  -24.0480 N.ar   36  U36        -0.1530
    503  C4       -24.9990   22.5860  -23.5670 C.ar   36  U36         0.2846
    504  O4       -25.9470   22.6040  -24.3550 O.2    36  U36        -0.2650
    505  C5       -25.0870   22.7090  -22.1420 C.ar   36  U36         0.0814
    506  C6       -23.9730   22.6690  -21.3990 C.ar   36  U36         0.0870
    507  OP1      -25.4710   21.2390  -18.5750 O.2    36  U36        -0.5172
    508  OP2      -24.1230   19.2520  -17.6210 O.co2  36  U36        -0.4373
    509  P        -18.1720   23.3300  -18.1430 P.3    37  G37         0.2141
    510  C5'      -18.8570   25.7500  -17.3240 C.3    37  G37         0.1812
    511  O5'      -18.8650   24.3430  -17.1200 O.3    37  G37        -0.3114
    512  C4'      -19.1240   26.4940  -16.0320 C.3    37  G37         0.1773
    513  O4'      -20.4400   26.1480  -15.5260 O.3    37  G37        -0.3307
    514  C3'      -18.1920   26.1810  -14.8670 C.3    37  G37         0.1860
    515  O3'      -16.9700   26.8940  -14.9280 O.3    37  G37        -0.3112
    516  C2'      -19.0390   26.5460  -13.6570 C.3    37  G37         0.2309
    517  O2'      -19.0890   27.9550  -13.4890 O.3    37  G37        -0.2156
    518  C1'      -20.4200   26.1030  -14.1130 C.3    37  G37         0.2408
    519  N1       -22.7850   23.2290  -10.6620 N.ar   37  G37        -0.1709
    520  C2       -22.6420   24.5920  -10.7020 C.ar   37  G37         0.2606
    521  N2       -23.2150   25.2610   -9.6900 N.pl3  37  G37        -0.0859
    522  N3       -21.9870   25.2370  -11.6570 N.ar   37  G37        -0.1918
    523  C4       -21.4870   24.3860  -12.5790 C.ar   37  G37         0.1723
    524  C5       -21.5780   23.0100  -12.6280 C.ar   37  G37         0.1748
    525  C6       -22.2820   22.3380  -11.6010 C.ar   37  G37         0.3023
    526  O6       -22.4800   21.1240  -11.4660 O.2    37  G37        -0.2633
    527  N7       -20.9300   22.5030  -13.7440 N.ar   37  G37        -0.2173
    528  C8       -20.4680   23.5630  -14.3460 C.ar   37  G37         0.1817
    529  N9       -20.7580   24.7340  -13.6870 N.ar   37  G37        -0.2693
    530  OP1      -16.9900   23.9570  -18.8010 O.2    37  G37        -0.5172
    531  OP2      -17.9880   22.0600  -17.3950 O.co2  37  G37        -0.4373
    532  P        -15.6050   26.2200  -14.4120 P.3    38  G38         0.2141
    533  C5'      -15.9570   27.3740  -12.0990 C.3    38  G38         0.1812
    534  O5'      -15.7510   26.1790  -12.8290 O.3    38  G38        -0.3114
    535  C4'      -16.3580   27.0730  -10.6830 C.3    38  G38         0.1773
    536  O4'      -17.6820   26.4900  -10.6580 O.3    38  G38        -0.3307
    537  C3'      -15.5010   26.0520   -9.9620 C.3    38  G38         0.1860
    538  O3'      -14.2920   26.6120   -9.4840 O.3    38  G38        -0.3112
    539  C2'      -16.4290   25.5660   -8.8550 C.3    38  G38         0.2309
    540  O2'      -16.4070   26.4510   -7.7460 O.3    38  G38        -0.2156
    541  C1'      -17.7990   25.6400   -9.5400 C.3    38  G38         0.2408
    542  N1       -20.7240   21.6030   -8.5520 N.ar   38  G38        -0.1709
    543  C2       -20.6280   22.7870   -7.8510 C.ar   38  G38         0.2606
    544  N2       -21.4100   22.8750   -6.7500 N.pl3  38  G38        -0.0859
    545  N3       -19.8220   23.7850   -8.2180 N.ar   38  G38        -0.1918
    546  C4       -19.1210   23.4940   -9.3480 C.ar   38  G38         0.1723
    547  C5       -19.1540   22.3430  -10.1150 C.ar   38  G38         0.1748
    548  C6       -20.0170   21.2800   -9.7120 C.ar   38  G38         0.3023
    549  O6       -20.1930   20.1750  -10.2530 O.2    38  G38        -0.2633
    550  N7       -18.2810   22.4460  -11.1980 N.ar   38  G38        -0.2173
    551  C8       -17.7460   23.6320  -11.0870 C.ar   38  G38         0.1817
    552  N9       -18.2220   24.3130   -9.9960 N.ar   38  G38        -0.2693
    553  OP1      -14.5350   27.1790  -14.7800 O.3    38  G38        -0.4373
    554  OP2      -15.5530   24.8090  -14.8800 O.co2  38  G38        -0.5172
    555  P        -12.9150   25.7870   -9.5350 P.3    39  U39         0.2141
    556  C5'      -12.1920   26.5540  -11.9730 C.3    39  U39         0.1812
    557  O5'      -11.9850   26.5960  -10.5640 O.3    39  U39        -0.3114
    558  C4'      -11.9290   27.8890  -12.6370 C.3    39  U39         0.1773
    559  O4'      -12.8760   28.8790  -12.1430 O.3    39  U39        -0.3307
    560  C3'      -10.5550   28.5320  -12.4040 C.3    39  U39         0.1860
    561  O3'       -9.5280   28.0330  -13.2600 O.3    39  U39        -0.3112
    562  C2'      -10.8290   30.0120  -12.6370 C.3    39  U39         0.2309
    563  O2'      -10.8120   30.3250  -14.0240 O.3    39  U39        -0.2156
    564  C1'      -12.2650   30.1610  -12.1200 C.3    39  U39         0.2420
    565  N1       -12.3250   30.7320  -10.7440 N.ar   39  U39        -0.2534
    566  C2       -11.8580   32.0210  -10.5670 C.ar   39  U39         0.3546
    567  O2       -11.3880   32.6960  -11.4700 O.2    39  U39        -0.2443
    568  N3       -11.9500   32.5120   -9.2870 N.ar   39  U39        -0.1530
    569  C4       -12.4600   31.8850   -8.1620 C.ar   39  U39         0.2846
    570  O4       -12.4810   32.4930   -7.0690 O.2    39  U39        -0.2650
    571  C5       -12.9330   30.5560   -8.4240 C.ar   39  U39         0.0814
    572  C6       -12.8530   30.0460   -9.6650 C.ar   39  U39         0.0870
    573  OP1      -13.1580   24.4230  -10.0610 O.2    39  U39        -0.5172
    574  OP2      -12.3760   25.9590   -8.1600 O.co2  39  U39        -0.4373
    575  P         -8.0390   27.7400  -12.6980 P.3    40  U40         0.2141
    576  C5'       -7.3970   30.1070  -13.5720 C.3    40  U40         0.1812
    577  O5'       -7.3960   29.1760  -12.5050 O.3    40  U40        -0.3114
    578  C4'       -6.9970   31.4680  -13.0830 C.3    40  U40         0.1773
    579  O4'       -8.0810   32.0720  -12.3280 O.3    40  U40        -0.3307
    580  C3'       -5.8210   31.4710  -12.1260 C.3    40  U40         0.1860
    581  O3'       -4.6000   31.4050  -12.8330 O.3    40  U40        -0.3112
    582  C2'       -6.0250   32.7640  -11.3450 C.3    40  U40         0.2309
    583  O2'       -5.5720   33.8830  -12.0980 O.3    40  U40        -0.2156
    584  C1'       -7.5570   32.8340  -11.2630 C.3    40  U40         0.2420
    585  N1        -8.0940   32.3030   -9.9870 N.ar   40  U40        -0.2534
    586  C2        -8.0980   33.2200   -8.9710 C.ar   40  U40         0.3546
    587  O2        -7.6740   34.3560   -9.1510 O.2    40  U40        -0.2443
    588  N3        -8.5900   32.7600   -7.7780 N.ar   40  U40        -0.1530
    589  C4        -9.0820   31.4960   -7.5300 C.ar   40  U40         0.2846
    590  O4        -9.4990   31.2540   -6.3990 O.2    40  U40        -0.2650
    591  C5        -9.0470   30.5830   -8.6440 C.ar   40  U40         0.0814
    592  C6        -8.5580   31.0120   -9.8180 C.ar   40  U40         0.0870
    593  OP1       -7.2720   27.0820  -13.7940 O.2    40  U40        -0.5172
    594  OP2       -8.1490   27.1150  -11.3610 O.co2  40  U40        -0.4373
    595  P         -3.2610   30.9030  -12.1150 P.3    41  U41         0.2141
    596  C5'       -2.3470   32.2980  -10.0960 C.3    41  U41         0.1812
    597  O5'       -2.7290   32.2470  -11.4510 O.3    41  U41        -0.3114
    598  C4'       -2.3510   33.7210   -9.6180 C.3    41  U41         0.1773
    599  O4'       -3.7160   34.1390   -9.3410 O.3    41  U41        -0.3307
    600  C3'       -1.5930   33.9650   -8.3220 C.3    41  U41         0.1860
    601  O3'       -0.2110   34.1730   -8.5720 O.3    41  U41        -0.3112
    602  C2'       -2.2970   35.1820   -7.7390 C.3    41  U41         0.2309
    603  O2'       -1.8220   36.3720   -8.3590 O.3    41  U41        -0.2156
    604  C1'       -3.7490   34.9380   -8.1770 C.3    41  U41         0.2420
    605  N1        -4.5430   34.2250   -7.1400 N.ar   41  U41        -0.2534
    606  C2        -4.8690   34.9100   -5.9730 C.ar   41  U41         0.3546
    607  O2        -4.5400   36.0720   -5.7500 O.2    41  U41        -0.2443
    608  N3        -5.6030   34.1830   -5.0610 N.ar   41  U41        -0.1530
    609  C4        -6.0340   32.8710   -5.1780 C.ar   41  U41         0.2846
    610  O4        -6.6860   32.3700   -4.2590 O.2    41  U41        -0.2650
    611  C5        -5.6670   32.2320   -6.4040 C.ar   41  U41         0.0814
    612  C6        -4.9510   32.9160   -7.3190 C.ar   41  U41         0.0870
    613  OP1       -2.2580   30.5690  -13.1630 O.2    41  U41        -0.5172
    614  OP2       -3.6230   29.8580  -11.1110 O.co2  41  U41        -0.4373
    615  P          0.9110   33.5080   -7.6390 P.3    42  C42         0.2141
    616  C5'        1.1530   35.9330   -6.7080 C.3    42  C42         0.1812
    617  O5'        1.0840   34.5460   -6.4490 O.3    42  C42        -0.3114
    618  C4'        0.6890   36.6930   -5.5050 C.3    42  C42         0.1773
    619  O4'       -0.7580   36.6540   -5.4280 O.3    42  C42        -0.3307
    620  C3'        1.1240   36.1310   -4.1610 C.3    42  C42         0.1860
    621  O3'        2.4680   36.4260   -3.8300 O.3    42  C42        -0.3112
    622  C2'        0.1120   36.7640   -3.2270 C.3    42  C42         0.2309
    623  O2'        0.4030   38.1440   -3.0790 O.3    42  C42        -0.2156
    624  C1'       -1.1570   36.6500   -4.0690 C.3    42  C42         0.2420
    625  N1        -1.8860   35.3940   -3.7670 N.ar   42  C42        -0.2535
    626  C2        -2.7270   35.4310   -2.6510 C.ar   42  C42         0.3532
    627  O2        -2.8400   36.4890   -2.0090 O.2    42  C42        -0.2443
    628  N3        -3.4110   34.3250   -2.2970 N.ar   42  C42        -0.1739
    629  C4        -3.2790   33.2100   -3.0070 C.ar   42  C42         0.1759
    630  N4        -4.0040   32.1620   -2.5950 N.pl3  42  C42        -0.1070
    631  C5        -2.4170   33.1280   -4.1520 C.ar   42  C42         0.0566
    632  C6        -1.7270   34.2340   -4.4910 C.ar   42  C42         0.0850
    633  OP1        2.1700   33.4980   -8.4230 O.2    42  C42        -0.5172
    634  OP2        0.3800   32.2820   -6.9970 O.co2  42  C42        -0.4373
    635  P          3.3090   35.4190   -2.9030 P.3    43  G43         0.2141
    636  C5'        2.7800   37.0570   -0.9400 C.3    43  G43         0.1812
    637  O5'        2.7880   35.7280   -1.4260 O.3    43  G43        -0.3114
    638  C4'        1.9910   37.1570    0.3340 C.3    43  G43         0.1773
    639  O4'        0.5790   37.0040    0.0500 O.3    43  G43        -0.3307
    640  C3'        2.2600   36.0810    1.3710 C.3    43  G43         0.1860
    641  O3'        3.4430   36.2910    2.1100 O.3    43  G43        -0.3112
    642  C2'        1.0060   36.1420    2.2160 C.3    43  G43         0.2309
    643  O2'        1.0380   37.2950    3.0400 O.3    43  G43        -0.2156
    644  C1'       -0.0500   36.3490    1.1330 C.3    43  G43         0.2408
    645  N1        -3.0850   32.6150    2.4420 N.ar   43  G43        -0.1709
    646  C2        -2.7740   33.7860    3.0930 C.ar   43  G43         0.2606
    647  N2        -3.3470   34.0150    4.3060 N.pl3  43  G43        -0.0859
    648  N3        -1.9380   34.6780    2.5880 N.ar   43  G43        -0.1918
    649  C4        -1.4390   34.3020    1.3990 C.ar   43  G43         0.1723
    650  C5        -1.6730   33.1650    0.6650 C.ar   43  G43         0.1748
    651  C6        -2.5680   32.2080    1.2080 C.ar   43  G43         0.3023
    652  O6        -2.9170   31.1230    0.7320 O.2    43  G43        -0.2633
    653  N7        -0.9280   33.1950   -0.5140 N.ar   43  G43        -0.2173
    654  C8        -0.2760   34.3370   -0.4750 C.ar   43  G43         0.1817
    655  N9        -0.5600   35.0530    0.6670 N.ar   43  G43        -0.2693
    656  OP1        4.7410   35.8220   -3.0020 O.3    43  G43        -0.4373
    657  OP2        2.8900   34.0350   -3.2430 O.co2  43  G43        -0.5172
    658  P          4.2450   35.0250    2.6920 P.3    44  G44         0.2141
    659  C5'        3.0700   35.4460    4.9770 C.3    44  G44         0.1812
    660  O5'        3.3640   34.5460    3.9240 O.3    44  G44        -0.3114
    661  C4'        1.9700   34.9170    5.8550 C.3    44  G44         0.1773
    662  O4'        0.7700   34.6780    5.0720 O.3    44  G44        -0.3307
    663  C3'        2.2400   33.5800    6.5180 C.3    44  G44         0.1860
    664  O3'        3.1140   33.6840    7.6360 O.3    44  G44        -0.3112
    665  C2'        0.8280   33.0990    6.8450 C.3    44  G44         0.2309
    666  O2'        0.3080   33.7840    7.9710 O.3    44  G44        -0.2156
    667  C1'        0.0600   33.5770    5.6120 C.3    44  G44         0.2408
    668  N1        -2.1490   29.1570    4.4500 N.ar   44  G44        -0.1709
    669  C2        -2.2890   29.9670    5.5660 C.ar   44  G44         0.2606
    670  N2        -3.1430   29.5290    6.5080 N.pl3  44  G44        -0.0859
    671  N3        -1.6420   31.1080    5.7490 N.ar   44  G44        -0.1918
    672  C4        -0.8220   31.3870    4.7080 C.ar   44  G44         0.1723
    673  C5        -0.5980   30.6520    3.5540 C.ar   44  G44         0.1748
    674  C6        -1.2990   29.4140    3.3750 C.ar   44  G44         0.3023
    675  O6        -1.2430   28.5870    2.4250 O.2    44  G44        -0.2633
    676  N7         0.3390   31.3050    2.7430 N.ar   44  G44        -0.2173
    677  C8         0.6420   32.3980    3.4000 C.ar   44  G44         0.1817
    678  N9        -0.0360   32.5100    4.5970 N.ar   44  G44        -0.2693
    679  OP1        5.5390   35.5200    3.2350 O.3    44  G44        -0.4373
    680  OP2        4.2120   33.9600    1.6550 O.co2  44  G44        -0.5172
    681  P          3.9640   32.4120    8.1530 P.3    45  A45         0.2141
    682  C5'        2.0810   31.9870    9.9170 C.3    45  A45         0.1812
    683  O5'        2.8830   31.4900    8.8570 O.3    45  A45        -0.3114
    684  C4'        1.0600   30.9570   10.2990 C.3    45  A45         0.1773
    685  O4'        0.1430   30.7520    9.1890 O.3    45  A45        -0.3307
    686  C3'        1.6380   29.5780   10.5570 C.3    45  A45         0.1860
    687  O3'        2.1880   29.4450   11.8540 O.3    45  A45        -0.3112
    688  C2'        0.4580   28.6520   10.2750 C.3    45  A45         0.2309
    689  O2'       -0.4260   28.5960   11.3860 O.3    45  A45        -0.2156
    690  C1'       -0.2430   29.3900    9.1310 C.3    45  A45         0.2408
    691  N1        -1.0140   25.5830    5.6730 N.ar   45  A45        -0.2040
    692  C2        -1.5040   25.8010    6.9080 C.ar   45  A45         0.2016
    693  N3        -1.2540   26.8020    7.7600 N.ar   45  A45        -0.2048
    694  C4        -0.3880   27.6880    7.2360 C.ar   45  A45         0.1692
    695  C5         0.2110   27.5960    5.9960 C.ar   45  A45         0.1518
    696  C6        -0.1320   26.4860    5.1900 C.ar   45  A45         0.1919
    697  N6         0.3800   26.2750    3.9760 N.pl3  45  A45        -0.1054
    698  N7         1.0580   28.6770    5.7850 N.ar   45  A45        -0.2193
    699  C8         0.9710   29.3880    6.8820 C.ar   45  A45         0.1816
    700  N9         0.1090   28.8470    7.8090 N.ar   45  A45        -0.2693
    701  OP1        4.8620   32.8810    9.2380 O.3    45  A45        -0.4373
    702  OP2        4.5120   31.6220    7.0140 O.co2  45  A45        -0.5172
    703  P          3.4920   28.5350   12.0870 P.3    46  G46         0.2141
    704  C5'        2.1120   26.3420   12.3500 C.3    46  G46         0.1812
    705  O5'        3.0630   27.0830   11.6080 O.3    46  G46        -0.3114
    706  C4'        1.6740   25.1040   11.6120 C.3    46  G46         0.1773
    707  O4'        1.0650   25.4510   10.3410 O.3    46  G46        -0.3307
    708  C3'        2.7710   24.1350   11.2270 C.3    46  G46         0.1860
    709  O3'        3.1900   23.3670   12.3260 O.3    46  G46        -0.3112
    710  C2'        2.1060   23.3240   10.1260 C.3    46  G46         0.2309
    711  O2'        1.1780   22.4050   10.6940 O.3    46  G46        -0.2156
    712  C1'        1.3220   24.4230    9.3970 C.3    46  G46         0.2408
    713  N1         2.6290   24.1600    4.4740 N.ar   46  G46        -0.1709
    714  C2         1.7900   23.3410    5.1680 C.ar   46  G46         0.2606
    715  N2         1.2480   22.3520    4.4250 N.pl3  46  G46        -0.0859
    716  N3         1.5020   23.4980    6.4690 N.ar   46  G46        -0.1918
    717  C4         2.1660   24.5610    6.9910 C.ar   46  G46         0.1723
    718  C5         3.0280   25.4440    6.3640 C.ar   46  G46         0.1748
    719  C6         3.3080   25.2580    4.9960 C.ar   46  G46         0.3023
    720  O6         4.0580   25.9320    4.2840 O.2    46  G46        -0.2633
    721  N7         3.4970   26.4220    7.2330 N.ar   46  G46        -0.2173
    722  C8         2.9290   26.1220    8.3720 C.ar   46  G46         0.1817
    723  N9         2.1100   25.0050    8.2940 N.ar   46  G46        -0.2693
    724  OP1        3.7390   28.4680   13.5630 O.3    46  G46        -0.4373
    725  OP2        4.5320   29.0290   11.1510 O.co2  46  G46        -0.5172
    726  P          4.4740   23.8290   13.1650 P.3    47  C47         0.2141
    727  C5'        5.0400   21.3740   12.6110 C.3    47  C47         0.1812
    728  O5'        5.4970   22.7090   12.7290 O.3    47  C47        -0.3114
    729  C4'        6.0820   20.5350   11.9420 C.3    47  C47         0.1773
    730  O4'        6.0560   20.8110   10.5160 O.3    47  C47        -0.3307
    731  C3'        7.4990   20.8290   12.4160 C.3    47  C47         0.1860
    732  O3'        8.2440   19.6160   12.4850 O.3    47  C47        -0.3112
    733  C2'        8.0460   21.7590   11.3370 C.3    47  C47         0.2309
    734  O2'        9.4510   21.7240   11.1990 O.3    47  C47        -0.2156
    735  C1'        7.3300   21.2480   10.0860 C.3    47  C47         0.2420
    736  N1         7.1360   22.2780    9.0560 N.ar   47  C47        -0.2535
    737  C2         7.7600   22.1100    7.8130 C.ar   47  C47         0.3532
    738  O2         8.4590   21.0970    7.5880 O.2    47  C47        -0.2443
    739  N3         7.5980   23.0650    6.8740 N.ar   47  C47        -0.1739
    740  C4         6.8550   24.1460    7.1190 C.ar   47  C47         0.1759
    741  N4         6.7540   25.0350    6.1280 N.pl3  47  C47        -0.1070
    742  C5         6.1940   24.3460    8.3780 C.ar   47  C47         0.0566
    743  C6         6.3620   23.3890    9.3090 C.ar   47  C47         0.0850
    744  OP1        4.2230   23.6140   14.6100 O.3    47  C47        -0.4373
    745  OP2        4.9600   25.1330   12.6460 O.co2  47  C47        -0.5172
    746  P          8.2480   18.7940   13.8680 P.3    48  U48         0.2141
    747  C5'       10.6300   19.6610   14.4160 C.3    48  U48         0.1812
    748  O5'        9.2640   19.5960   14.7660 O.3    48  U48        -0.3114
    749  C4'       11.2010   21.0050   14.7610 C.3    48  U48         0.1773
    750  O4'       12.0000   20.8760   15.9640 O.3    48  U48        -0.3307
    751  C3'       12.1340   21.5480   13.7020 C.3    48  U48         0.1860
    752  O3'       12.1700   22.9650   13.7870 O.3    48  U48        -0.3112
    753  C2'       13.4690   20.9950   14.1420 C.3    48  U48         0.2309
    754  O2'       14.5720   21.7010   13.6400 O.3    48  U48        -0.2156
    755  C1'       13.3590   21.1150   15.6580 C.3    48  U48         0.2420
    756  N1        14.1570   20.1040   16.3530 N.ar   48  U48        -0.2534
    757  C2        14.4380   20.2780   17.6940 C.ar   48  U48         0.3546
    758  O2        14.0330   21.2330   18.3520 O.2    48  U48        -0.2443
    759  N3        15.2030   19.2620   18.2250 N.ar   48  U48        -0.1530
    760  C4        15.6990   18.1470   17.5650 C.ar   48  U48         0.2846
    761  O4        16.3740   17.3230   18.1830 O.2    48  U48        -0.2650
    762  C5        15.3660   18.0570   16.1780 C.ar   48  U48         0.0814
    763  C6        14.6250   19.0230   15.6380 C.ar   48  U48         0.0870
    764  OP1        8.8010   17.4290   13.6240 O.2    48  U48        -0.5172
    765  OP2        6.9460   19.0010   14.5550 O.co2  48  U48        -0.4373
    766  P         11.9030   23.8460   12.4760 P.3    49  U49         0.2141
    767  C5'       13.5850   22.6380   10.8680 C.3    49  U49         0.1812
    768  O5'       12.2370   22.8580   11.2690 O.3    49  U49        -0.3114
    769  C4'       13.6710   22.1520    9.4480 C.3    49  U49         0.1773
    770  O4'       13.4990   20.7120    9.4010 O.3    49  U49        -0.3307
    771  C3'       12.6370   22.7490    8.4970 C.3    49  U49         0.1860
    772  O3'       13.2710   23.0830    7.2650 O.3    49  U49        -0.3112
    773  C2'       11.6330   21.6110    8.3060 C.3    49  U49         0.2309
    774  O2'       10.9350   21.6280    7.0780 O.3    49  U49        -0.2156
    775  C1'       12.5240   20.3820    8.4350 C.3    49  U49         0.2420
    776  N1        11.8230   19.1750    8.8910 N.ar   49  U49        -0.2534
    777  C2        12.1680   18.0090    8.2480 C.ar   49  U49         0.3546
    778  O2        13.0010   18.0050    7.3610 O.2    49  U49        -0.2443
    779  N3        11.5140   16.8790    8.6800 N.ar   49  U49        -0.1530
    780  C4        10.5550   16.8250    9.6770 C.ar   49  U49         0.2846
    781  O4        10.0420   15.7430    9.9630 O.2    49  U49        -0.2650
    782  C5        10.2470   18.0810   10.2930 C.ar   49  U49         0.0814
    783  C6        10.8760   19.1910    9.8880 C.ar   49  U49         0.0870
    784  OP1       12.9100   24.9410   12.4340 O.2    49  U49        -0.5172
    785  OP2       10.4530   24.1550   12.4700 O.co2  49  U49        -0.4373
    786  P         14.1570   24.4260    7.1830 P.3    50  C50         0.2141
    787  C5'       14.3350   24.5330    4.5830 C.3    50  C50         0.1812
    788  O5'       14.9580   24.2680    5.8230 O.3    50  C50        -0.3114
    789  C4'       15.0250   23.7790    3.4850 C.3    50  C50         0.1773
    790  O4'       15.2060   22.3980    3.8890 O.3    50  C50        -0.3307
    791  C3'       14.2560   23.6940    2.1810 C.3    50  C50         0.1860
    792  O3'       14.4550   24.8320    1.3760 O.3    50  C50        -0.3112
    793  C2'       14.7870   22.4200    1.5570 C.3    50  C50         0.2309
    794  O2'       16.0540   22.6610    0.9660 O.3    50  C50        -0.2156
    795  C1'       14.9900   21.5430    2.7910 C.3    50  C50         0.2420
    796  N1        13.8180   20.6930    3.0950 N.ar   50  C50        -0.2535
    797  C2        13.4390   19.6760    2.2130 C.ar   50  C50         0.3532
    798  O2        14.0750   19.5190    1.1700 O.2    50  C50        -0.2443
    799  N3        12.3780   18.8920    2.5120 N.ar   50  C50        -0.1739
    800  C4        11.7050   19.0760    3.6500 C.ar   50  C50         0.1759
    801  N4        10.6610   18.2830    3.9070 N.pl3  50  C50        -0.1070
    802  C5        12.0750   20.0910    4.5730 C.ar   50  C50         0.0566
    803  C6        13.1290   20.8610    4.2630 C.ar   50  C50         0.0850
    804  OP1       15.1650   24.4380    8.2770 O.3    50  C50        -0.4373
    805  OP2       13.2440   25.5870    7.0260 O.co2  50  C50        -0.5172
    806  P         13.1950   25.7330    1.0060 P.3    51  C51         0.2141
    807  C5'       13.0810   24.2420   -1.1520 C.3    51  C51         0.1812
    808  O5'       12.4050   24.8310   -0.0470 O.3    51  C51        -0.3114
    809  C4'       12.4110   22.9630   -1.6030 C.3    51  C51         0.1773
    810  O4'       12.5180   21.9550   -0.5620 O.3    51  C51        -0.3307
    811  C3'       10.9170   23.0520   -1.8680 C.3    51  C51         0.1860
    812  O3'       10.6050   23.6120   -3.1280 O.3    51  C51        -0.3112
    813  C2'       10.4710   21.6070   -1.7150 C.3    51  C51         0.2309
    814  O2'       10.7810   20.8510   -2.8760 O.3    51  C51        -0.2156
    815  C1'       11.3640   21.1420   -0.5610 C.3    51  C51         0.2420
    816  N1        10.6730   21.2910    0.7430 N.ar   51  C51        -0.2535
    817  C2         9.7470   20.2920    1.1010 C.ar   51  C51         0.3532
    818  O2         9.5650   19.3270    0.3330 O.2    51  C51        -0.2443
    819  N3         9.0790   20.3890    2.2760 N.ar   51  C51        -0.1739
    820  C4         9.3020   21.4400    3.0770 C.ar   51  C51         0.1759
    821  N4         8.6120   21.4870    4.2250 N.pl3  51  C51        -0.1070
    822  C5        10.2280   22.4790    2.7310 C.ar   51  C51         0.0566
    823  C6        10.8900   22.3740    1.5650 C.ar   51  C51         0.0850
    824  OP1       13.6550   26.9790    0.3310 O.2    51  C51        -0.5172
    825  OP2       12.4040   25.8060    2.2660 O.co2  51  C51        -0.4373
    826  P          9.2720   24.4860   -3.3170 P.3    52  A52         0.2141
    827  C5'        7.9570   22.3980   -4.2160 C.3    52  A52         0.1812
    828  O5'        8.0870   23.4240   -3.2390 O.3    52  A52        -0.3114
    829  C4'        6.9310   21.3780   -3.7900 C.3    52  A52         0.1773
    830  O4'        7.3120   20.7910   -2.5110 O.3    52  A52        -0.3307
    831  C3'        5.5340   21.9230   -3.5390 C.3    52  A52         0.1860
    832  O3'        4.8030   22.1050   -4.7410 O.3    52  A52        -0.3112
    833  C2'        4.9340   20.8740   -2.6090 C.3    52  A52         0.2309
    834  O2'        4.5170   19.7340   -3.3640 O.3    52  A52        -0.2156
    835  C1'        6.1490   20.4920   -1.7550 C.3    52  A52         0.2408
    836  N1         4.5360   21.0290    3.2090 N.ar   52  A52        -0.2040
    837  C2         4.2230   20.1310    2.2750 C.ar   52  A52         0.2016
    838  N3         4.6600   20.0220    1.0290 N.ar   52  A52        -0.2048
    839  C4         5.5400   21.0030    0.7260 C.ar   52  A52         0.1692
    840  C5         5.9640   21.9930    1.5950 C.ar   52  A52         0.1518
    841  C6         5.4320   21.9910    2.8960 C.ar   52  A52         0.1919
    842  N6         5.7600   22.9020    3.8100 N.pl3  52  A52        -0.1054
    843  N7         6.8770   22.8360    0.9860 N.ar   52  A52        -0.2193
    844  C8         6.9870   22.3490   -0.2310 C.ar   52  A52         0.1816
    845  N9         6.2120   21.2400   -0.4730 N.ar   52  A52        -0.2693
    846  OP1        9.2860   25.0030   -4.7130 O.2    52  A52        -0.5172
    847  OP2        9.1370   25.3960   -2.1510 O.co2  52  A52        -0.4373
    848  P          4.0140   23.4800   -5.0410 P.3    53  C53         0.2141
    849  C5'        1.7880   22.1820   -4.5220 C.3    53  C53         0.1812
    850  O5'        2.6230   23.3090   -4.2820 O.3    53  C53        -0.3114
    851  C4'        0.9760   21.8500   -3.2950 C.3    53  C53         0.1773
    852  O4'        1.8730   21.5350   -2.2030 O.3    53  C53        -0.3307
    853  C3'        0.0980   22.9560   -2.7350 C.3    53  C53         0.1860
    854  O3'       -1.1330   23.0670   -3.4160 O.3    53  C53        -0.3112
    855  C2'       -0.0830   22.5300   -1.2820 C.3    53  C53         0.2309
    856  O2'       -1.0830   21.5190   -1.1990 O.3    53  C53        -0.2156
    857  C1'        1.2790   21.8940   -0.9740 C.3    53  C53         0.2420
    858  N1         2.1960   22.8210   -0.2870 N.ar   53  C53        -0.2535
    859  C2         2.1680   22.9070    1.0970 C.ar   53  C53         0.3532
    860  O2         1.3820   22.1810    1.7330 O.2    53  C53        -0.2443
    861  N3         3.0020   23.7710    1.7080 N.ar   53  C53        -0.1739
    862  C4         3.8410   24.5090    0.9700 C.ar   53  C53         0.1759
    863  N4         4.6590   25.3390    1.6240 N.pl3  53  C53        -0.1070
    864  C5         3.8860   24.4360   -0.4480 C.ar   53  C53         0.0566
    865  C6         3.0460   23.5860   -1.0390 C.ar   53  C53         0.0850
    866  OP1        3.7560   23.5450   -6.5140 O.2    53  C53        -0.5172
    867  OP2        4.7340   24.5890   -4.3770 O.co2  53  C53        -0.4373
    868  P         -1.3430   24.1580   -4.5770 P.3    54  C54         0.2141
    869  C5'       -0.8020   23.0220   -6.8680 C.3    54  C54         0.1812
    870  O5'       -1.7340   23.2590   -5.8350 O.3    54  C54        -0.3114
    871  C4'       -0.8320   21.6010   -7.3930 C.3    54  C54         0.1773
    872  O4'       -0.5620   20.6360   -6.3440 O.3    54  C54        -0.3307
    873  C3'       -2.1020   21.0560   -8.0270 C.3    54  C54         0.1860
    874  O3'       -2.3980   21.5970   -9.3120 O.3    54  C54        -0.3112
    875  C2'       -1.7790   19.5670   -8.0830 C.3    54  C54         0.2309
    876  O2'       -0.8370   19.3100   -9.1200 O.3    54  C54        -0.2156
    877  C1'       -1.0530   19.3670   -6.7590 C.3    54  C54         0.2420
    878  N1        -1.9400   18.7520   -5.7440 N.ar   54  C54        -0.2535
    879  C2        -2.1530   17.3780   -5.9350 C.ar   54  C54         0.3532
    880  O2        -1.5860   16.8000   -6.8930 O.2    54  C54        -0.2443
    881  N3        -2.9430   16.7100   -5.0690 N.ar   54  C54        -0.1739
    882  C4        -3.5120   17.3600   -4.0670 C.ar   54  C54         0.1759
    883  N4        -4.2980   16.6380   -3.2710 N.pl3  54  C54        -0.1070
    884  C5        -3.3260   18.7610   -3.8440 C.ar   54  C54         0.0566
    885  C6        -2.5330   19.4250   -4.7050 C.ar   54  C54         0.0850
    886  OP1       -0.0700   24.8820   -4.8440 O.2    54  C54        -0.5172
    887  OP2       -2.5490   24.9400   -4.2110 O.co2  54  C54        -0.4373
    888  P         -3.9020   21.5730   -9.9110 P.3    55  A55         0.2141
    889  C5'       -3.3310   19.4660  -11.3750 C.3    55  A55         0.1812
    890  O5'       -4.1340   20.0630  -10.3710 O.3    55  A55        -0.3114
    891  C4'       -3.5830   17.9870  -11.4640 C.3    55  A55         0.1773
    892  O4'       -3.2090   17.3270  -10.2270 O.3    55  A55        -0.3307
    893  C3'       -5.0270   17.5790  -11.6680 C.3    55  A55         0.1860
    894  O3'       -5.4080   17.7170  -13.0130 O.3    55  A55        -0.3112
    895  C2'       -5.0340   16.1360  -11.1730 C.3    55  A55         0.2309
    896  O2'       -4.4800   15.2710  -12.1450 O.3    55  A55        -0.2156
    897  C1'       -4.0490   16.2100  -10.0130 C.3    55  A55         0.2408
    898  N1        -6.4600   13.8450   -6.1470 N.ar   55  A55        -0.2040
    899  C2        -5.9710   13.4040   -7.3170 C.ar   55  A55         0.2016
    900  N3        -5.3550   14.0780   -8.3010 N.ar   55  A55        -0.2048
    901  C4        -5.2760   15.3760   -7.9760 C.ar   55  A55         0.1692
    902  C5        -5.7560   15.9810   -6.8320 C.ar   55  A55         0.1518
    903  C6        -6.3790   15.1540   -5.8730 C.ar   55  A55         0.1919
    904  N6        -6.8780   15.6120   -4.7280 N.pl3  55  A55        -0.1054
    905  N7        -5.4800   17.3370   -6.8440 N.ar   55  A55        -0.2193
    906  C8        -4.8720   17.5220   -7.9940 C.ar   55  A55         0.1816
    907  N9        -4.7150   16.3750   -8.7140 N.ar   55  A55        -0.2693
    908  OP1       -3.8920   22.4250  -11.1360 O.2    55  A55        -0.5172
    909  OP2       -4.8900   21.8420   -8.8280 O.co2  55  A55        -0.4373
    910  P         -6.9290   18.0200  -13.4260 P.3    56  A56         0.2141
    911  C5'       -7.2450   15.5240  -14.1370 C.3    56  A56         0.1812
    912  O5'       -7.6340   16.5950  -13.2850 O.3    56  A56        -0.3114
    913  C4'       -7.6770   14.1850  -13.5990 C.3    56  A56         0.1773
    914  O4'       -7.0980   13.9660  -12.2820 O.3    56  A56        -0.3307
    915  C3'       -9.1670   13.9970  -13.3730 C.3    56  A56         0.1860
    916  O3'       -9.8950   13.7390  -14.5690 O.3    56  A56        -0.3112
    917  C2'       -9.1900   12.8550  -12.3640 C.3    56  A56         0.2309
    918  O2'       -8.9060   11.6190  -13.0010 O.3    56  A56        -0.2156
    919  C1'       -7.9930   13.2180  -11.4870 C.3    56  A56         0.2408
    920  N1        -9.9050   13.4490   -6.6920 N.ar   56  A56        -0.2040
    921  C2        -9.6340   12.3940   -7.4880 C.ar   56  A56         0.2016
    922  N3        -9.1450   12.3800   -8.7390 N.ar   56  A56        -0.2048
    923  C4        -8.9100   13.6440   -9.1630 C.ar   56  A56         0.1692
    924  C5        -9.1210   14.8170   -8.4610 C.ar   56  A56         0.1518
    925  C6        -9.6460   14.6920   -7.1710 C.ar   56  A56         0.1919
    926  N6        -9.8830   15.7730   -6.4410 N.pl3  56  A56        -0.1054
    927  N7        -8.7680   15.9460   -9.1950 N.ar   56  A56        -0.2193
    928  C8        -8.3500   15.4380  -10.3250 C.ar   56  A56         0.1816
    929  N9        -8.3980   14.0640  -10.3620 N.ar   56  A56        -0.2693
    930  OP1       -6.8430   18.3640  -14.8690 O.2    56  A56        -0.5172
    931  OP2       -7.5530   18.9780  -12.4720 O.co2  56  A56        -0.4373
    932  P        -11.4040   14.2880  -14.7360 P.3    57  G57         0.2141
    933  C5'      -12.3810   12.0530  -13.7740 C.3    57  G57         0.1812
    934  O5'      -12.2270   13.4580  -13.6450 O.3    57  G57        -0.3114
    935  C4'      -12.9170   11.4050  -12.5160 C.3    57  G57         0.1773
    936  O4'      -12.0360   11.6650  -11.3870 O.3    57  G57        -0.3307
    937  C3'      -14.2830   11.8510  -12.0100 C.3    57  G57         0.1860
    938  O3'      -15.3730   11.3090  -12.7380 O.3    57  G57        -0.3112
    939  C2'      -14.2480   11.3780  -10.5660 C.3    57  G57         0.2309
    940  O2'      -14.4390    9.9690  -10.4980 O.3    57  G57        -0.2156
    941  C1'      -12.7970   11.6870  -10.1910 C.3    57  G57         0.2408
    942  N1       -13.5420   14.3610   -5.9680 N.ar   57  G57        -0.1709
    943  C2       -13.7410   13.0150   -6.2240 C.ar   57  G57         0.2606
    944  N2       -14.2030   12.2460   -5.2310 N.pl3  57  G57        -0.0859
    945  N3       -13.4970   12.4360   -7.3800 N.ar   57  G57        -0.1918
    946  C4       -13.0410   13.3220   -8.2870 C.ar   57  G57         0.1723
    947  C5       -12.8190   14.6780   -8.1520 C.ar   57  G57         0.1748
    948  C6       -13.0750   15.2860   -6.9120 C.ar   57  G57         0.3023
    949  O6       -12.9210   16.4840   -6.6410 O.2    57  G57        -0.2633
    950  N7       -12.3490   15.2300   -9.3420 N.ar   57  G57        -0.2173
    951  C8       -12.3030   14.2090  -10.1690 C.ar   57  G57         0.1817
    952  N9       -12.6970   13.0210   -9.5830 N.ar   57  G57        -0.2693
    953  OP1      -11.8960   13.9600  -16.1040 O.2    57  G57        -0.5172
    954  OP2      -11.4290   15.7110  -14.3350 O.co2  57  G57        -0.4373
    955  P        -16.7740   12.1000  -12.8050 P.3    58  A58         0.2141
    956  C5'      -17.8050   10.5990  -10.8970 C.3    58  A58         0.1812
    957  O5'      -17.4420   11.8900  -11.3690 O.3    58  A58        -0.3114
    958  C4'      -18.0300   10.6050   -9.4010 C.3    58  A58         0.1773
    959  O4'      -16.8580   11.1310   -8.7170 O.3    58  A58        -0.3307
    960  C3'      -19.1610   11.4870   -8.8920 C.3    58  A58         0.1860
    961  O3'      -20.4390   10.9140   -9.0500 O.3    58  A58        -0.3112
    962  C2'      -18.7740   11.6970   -7.4380 C.3    58  A58         0.2309
    963  O2'      -19.0570   10.5250   -6.6800 O.3    58  A58        -0.2156
    964  C1'      -17.2610   11.8550   -7.5650 C.3    58  A58         0.2408
    965  N1       -16.7230   16.4940   -5.3150 N.ar   58  A58        -0.2040
    966  C2       -17.1010   15.2990   -4.8390 C.ar   58  A58         0.2016
    967  N3       -17.2210   14.1320   -5.4690 N.ar   58  A58        -0.2048
    968  C4       -16.8950   14.2610   -6.7690 C.ar   58  A58         0.1692
    969  C5       -16.4870   15.4290   -7.4040 C.ar   58  A58         0.1518
    970  C6       -16.3950   16.5950   -6.6250 C.ar   58  A58         0.1919
    971  N6       -16.0210   17.7950   -7.0990 N.pl3  58  A58        -0.1054
    972  N7       -16.2400   15.1850   -8.7440 N.ar   58  A58        -0.2193
    973  C8       -16.4900   13.9060   -8.8900 C.ar   58  A58         0.1816
    974  N9       -16.8920   13.2750   -7.7380 N.ar   58  A58        -0.2693
    975  OP1      -17.6080   11.4440  -13.8390 O.2    58  A58        -0.5172
    976  OP2      -16.4490   13.5450  -12.9120 O.co2  58  A58        -0.4373
    977  P        -21.7100   11.8570   -9.3420 P.3    59  G59         0.2141
    978  C5'      -22.2980   11.7650   -6.7990 C.3    59  G59         0.1812
    979  O5'      -22.0040   12.5500   -7.9430 O.3    59  G59        -0.3114
    980  C4'      -22.1240   12.5610   -5.5360 C.3    59  G59         0.1773
    981  O4'      -20.8140   13.1780   -5.5370 O.3    59  G59        -0.3307
    982  C3'      -23.0800   13.7290   -5.3490 C.3    59  G59         0.1860
    983  O3'      -24.3340   13.3260   -4.8290 O.3    59  G59        -0.3112
    984  C2'      -22.3040   14.6460   -4.4110 C.3    59  G59         0.2309
    985  O2'      -22.3890   14.1800   -3.0710 O.3    59  G59        -0.2156
    986  C1'      -20.8710   14.4320   -4.8940 C.3    59  G59         0.2408
    987  N1       -19.3720   19.2770   -5.3560 N.ar   59  G59        -0.1709
    988  C2       -19.8320   18.6040   -4.2480 C.ar   59  G59         0.2606
    989  N2       -19.9100   19.3080   -3.1100 N.pl3  59  G59        -0.0859
    990  N3       -20.1990   17.3360   -4.2600 N.ar   59  G59        -0.1918
    991  C4       -20.0710   16.7790   -5.4870 C.ar   59  G59         0.1723
    992  C5       -19.6200   17.3580   -6.6550 C.ar   59  G59         0.1748
    993  C6       -19.2230   18.7200   -6.6260 C.ar   59  G59         0.3023
    994  O6       -18.7920   19.4110   -7.5540 O.2    59  G59        -0.2633
    995  N7       -19.6430   16.4470   -7.7030 N.ar   59  G59        -0.2173
    996  C8       -20.0920   15.3450   -7.1620 C.ar   59  G59         0.1817
    997  N9       -20.3840   15.4790   -5.8210 N.ar   59  G59        -0.2693
    998  OP1      -22.8490   10.9530   -9.6570 O.3    59  G59        -0.4373
    999  OP2      -21.3380   12.9360  -10.2890 O.co2  59  G59        -0.5172
   1000  P        -25.6850   14.0680   -5.2770 P.3    60  C60         0.2141
   1001  C5'      -25.4880   15.7200   -3.2520 C.3    60  C60         0.1812
   1002  O5'      -25.5680   15.5270   -4.6540 O.3    60  C60        -0.3114
   1003  C4'      -25.0430   17.1220   -2.9330 C.3    60  C60         0.1773
   1004  O4'      -23.7050   17.3310   -3.4430 O.3    60  C60        -0.3307
   1005  C3'      -25.8560   18.2260   -3.5800 C.3    60  C60         0.1860
   1006  O3'      -27.0350   18.5180   -2.8610 O.3    60  C60        -0.3112
   1007  C2'      -24.8700   19.3820   -3.6280 C.3    60  C60         0.2309
   1008  O2'      -24.7370   19.9710   -2.3450 O.3    60  C60        -0.2156
   1009  C1'      -23.5720   18.6510   -3.9240 C.3    60  C60         0.2420
   1010  N1       -23.2320   18.5910   -5.3640 N.ar   60  C60        -0.2535
   1011  C2       -22.6760   19.7060   -6.0000 C.ar   60  C60         0.3532
   1012  O2       -22.5330   20.7680   -5.3610 O.2    60  C60        -0.2443
   1013  N3       -22.3380   19.5950   -7.3130 N.ar   60  C60        -0.1739
   1014  C4       -22.5160   18.4410   -7.9780 C.ar   60  C60         0.1759
   1015  N4       -22.1700   18.3740   -9.2700 N.pl3  60  C60        -0.1070
   1016  C5       -23.0670   17.2920   -7.3420 C.ar   60  C60         0.0566
   1017  C6       -23.3990   17.4140   -6.0510 C.ar   60  C60         0.0850
   1018  OP1      -26.7980   13.3850   -4.5730 O.3    60  C60        -0.4373
   1019  OP2      -25.6930   14.2270   -6.7540 O.co2  60  C60        -0.5172
   1020  P        -28.3660   18.9520   -3.6430 P.3    61  C61         0.2141
   1021  C5'      -27.8090   21.3810   -2.8410 C.3    61  C61         0.1812
   1022  O5'      -28.1640   20.5090   -3.9030 O.3    61  C61        -0.3114
   1023  C4'      -27.1850   22.6520   -3.3610 C.3    61  C61         0.1773
   1024  O4'      -25.9190   22.3580   -4.0030 O.3    61  C61        -0.3307
   1025  C3'      -27.9750   23.3860   -4.4310 C.3    61  C61         0.1860
   1026  O3'      -29.0060   24.1850   -3.8810 O.3    61  C61        -0.3112
   1027  C2'      -26.9000   24.1980   -5.1430 C.3    61  C61         0.2309
   1028  O2'      -26.5790   25.3570   -4.3890 O.3    61  C61        -0.2156
   1029  C1'      -25.7020   23.2510   -5.0760 C.3    61  C61         0.2420
   1030  N1       -25.5050   22.4730   -6.3200 N.ar   61  C61        -0.2535
   1031  C2       -24.8110   23.0720   -7.3760 C.ar   61  C61         0.3532
   1032  O2       -24.4030   24.2350   -7.2380 O.2    61  C61        -0.2443
   1033  N3       -24.6030   22.3830   -8.5260 N.ar   61  C61        -0.1739
   1034  C4       -25.0410   21.1280   -8.6430 C.ar   61  C61         0.1759
   1035  N4       -24.7880   20.4830   -9.7960 N.pl3  61  C61        -0.1070
   1036  C5       -25.7450   20.4890   -7.5760 C.ar   61  C61         0.0566
   1037  C6       -25.9490   21.1870   -6.4470 C.ar   61  C61         0.0850
   1038  OP1      -29.4870   18.7860   -2.6700 O.3    61  C61        -0.4373
   1039  OP2      -28.3520   18.2690   -4.9700 O.co2  61  C61        -0.5172
   1040  P        -30.5350   23.6990   -3.9430 P.3    62  U62         0.2141
   1041  C5'      -30.9470   24.8830   -6.2270 C.3    62  U62         0.1812
   1042  O5'      -31.2340   24.8030   -4.8400 O.3    62  U62        -0.3114
   1043  C4'      -31.9380   25.7650   -6.9310 C.3    62  U62         0.1773
   1044  O4'      -31.7810   25.5680   -8.3580 O.3    62  U62        -0.3307
   1045  C3'      -33.3890   25.4480   -6.5990 C.3    62  U62         0.1860
   1046  O3'      -34.1970   26.6300   -6.3940 O.3    62  U62        -0.3112
   1047  C2'      -33.8470   24.5580   -7.7640 C.3    62  U62         0.2309
   1048  O2'      -35.2230   24.6380   -8.0820 O.3    62  U62        -0.2156
   1049  C1'      -32.9560   25.0160   -8.9260 C.3    62  U62         0.2420
   1050  N1       -32.5160   23.9040   -9.7840 N.ar   62  U62        -0.2534
   1051  C2       -32.7290   23.9510  -11.1540 C.ar   62  U62         0.3546
   1052  O2       -33.2850   24.8850  -11.7190 O.2    62  U62        -0.2443
   1053  N3       -32.2560   22.8470  -11.8370 N.ar   62  U62        -0.1530
   1054  C4       -31.6130   21.7340  -11.3110 C.ar   62  U62         0.2846
   1055  O4       -31.2530   20.8090  -12.0480 O.2    62  U62        -0.2650
   1056  C5       -31.4480   21.7710   -9.8920 C.ar   62  U62         0.0814
   1057  C6       -31.8810   22.8270   -9.2010 C.ar   62  U62         0.0870
   1058  OP1      -31.0840   23.8020   -2.5700 O.3    62  U62        -0.4373
   1059  OP2      -30.6260   22.4160   -4.6920 O.co2  62  U62        -0.5172
   1060  P        -34.3270   27.8770   -7.4130 P.3    63  U63         0.2141
   1061  C5'      -32.6120   29.3480   -8.6800 C.3    63  U63         0.1812
   1062  O5'      -32.8700   28.4960   -7.5720 O.3    63  U63        -0.3114
   1063  C4'      -31.2190   29.9240   -8.7030 C.3    63  U63         0.1773
   1064  O4'      -30.2640   28.8770   -9.0560 O.3    63  U63        -0.3307
   1065  C3'      -31.0570   31.0020   -9.7670 C.3    63  U63         0.1860
   1066  O3'      -30.0080   31.8860   -9.3900 O.3    63  U63        -0.3112
   1067  C2'      -30.6190   30.1940  -10.9780 C.3    63  U63         0.2309
   1068  O2'      -29.9800   30.9580  -11.9820 O.3    63  U63        -0.2156
   1069  C1'      -29.6850   29.1730  -10.3210 C.3    63  U63         0.2420
   1070  N1       -29.5070   27.9120  -11.0660 N.ar   63  U63        -0.2534
   1071  C2       -28.5830   27.9030  -12.0960 C.ar   63  U63         0.3546
   1072  O2       -27.9540   28.8950  -12.4160 O.2    63  U63        -0.2443
   1073  N3       -28.4220   26.7050  -12.7560 N.ar   63  U63        -0.1530
   1074  C4       -29.0770   25.5210  -12.4910 C.ar   63  U63         0.2846
   1075  O4       -28.8220   24.5220  -13.1700 O.2    63  U63        -0.2650
   1076  C5       -30.0100   25.6020  -11.4060 C.ar   63  U63         0.0814
   1077  C6       -30.1880   26.7570  -10.7460 C.ar   63  U63         0.0870
   1078  OP1      -35.1120   28.9000   -6.6780 O.3    63  U63        -0.4373
   1079  OP2      -34.8190   27.4400   -8.7430 O.co2  63  U63        -0.5172
   1080  P        -30.3370   33.4110   -9.0210 P.3    64  A64         0.2141
   1081  C5'      -29.3120   34.0570   -6.7050 C.3    64  A64         0.1812
   1082  O5'      -30.3410   33.4070   -7.4270 O.3    64  A64        -0.3114
   1083  C4'      -28.8380   33.2390   -5.5320 C.3    64  A64         0.1773
   1084  O4'      -29.0900   31.8310   -5.7620 O.3    64  A64        -0.3307
   1085  C3'      -27.3460   33.3230   -5.2590 C.3    64  A64         0.1860
   1086  O3'      -27.0140   34.4650   -4.4930 O.3    64  A64        -0.3112
   1087  C2'      -27.0440   32.0030   -4.5610 C.3    64  A64         0.2309
   1088  O2'      -27.3870   32.0770   -3.1850 O.3    64  A64        -0.2156
   1089  C1'      -28.0210   31.0550   -5.2570 C.3    64  A64         0.2408
   1090  N1       -27.7540   26.6010   -7.8070 N.ar   64  A64        -0.2040
   1091  C2       -28.3920   26.9730   -6.6940 C.ar   64  A64         0.2016
   1092  N3       -28.4120   28.1520   -6.0780 N.ar   64  A64        -0.2048
   1093  C4       -27.6540   29.0380   -6.7400 C.ar   64  A64         0.1692
   1094  C5       -26.9360   28.8110   -7.8980 C.ar   64  A64         0.1518
   1095  C6       -27.0000   27.5170   -8.4470 C.ar   64  A64         0.1919
   1096  N6       -26.3550   27.1510   -9.5550 N.pl3  64  A64        -0.1054
   1097  N7       -26.2730   29.9660   -8.2940 N.ar   64  A64        -0.2193
   1098  C8       -26.6010   30.8490   -7.3820 C.ar   64  A64         0.1816
   1099  N9       -27.4220   30.3480   -6.4020 N.ar   64  A64        -0.2693
   1100  OP1      -31.7110   33.7360   -9.4980 O.2    64  A64        -0.5172
   1101  OP2      -29.1860   34.2220   -9.4950 O.co2  64  A64        -0.4373
   1102  P        -25.7570   35.3740   -4.8990 P.3    65  A65         0.2141
   1103  C5'      -24.8920   34.6950   -2.5330 C.3    65  A65         0.1812
   1104  O5'      -24.6170   34.8490   -3.9210 O.3    65  A65        -0.3114
   1105  C4'      -24.0350   33.6300   -1.9120 C.3    65  A65         0.1773
   1106  O4'      -24.3180   32.3470   -2.5450 O.3    65  A65        -0.3307
   1107  C3'      -22.5310   33.8500   -2.0550 C.3    65  A65         0.1860
   1108  O3'      -21.8850   33.3120   -0.9090 O.3    65  A65        -0.3112
   1109  C2'      -22.1890   32.9830   -3.2560 C.3    65  A65         0.2309
   1110  O2'      -20.8340   32.6030   -3.3280 O.3    65  A65        -0.2156
   1111  C1'      -23.1110   31.7930   -3.0210 C.3    65  A65         0.2408
   1112  N1       -24.5000   27.1410   -4.7030 N.ar   65  A65        -0.2040
   1113  C2       -24.3600   27.6510   -3.4740 C.ar   65  A65         0.2016
   1114  N3       -23.9960   28.8830   -3.1130 N.ar   65  A65        -0.2048
   1115  C4       -23.7620   29.6540   -4.1900 C.ar   65  A65         0.1692
   1116  C5       -23.8630   29.2770   -5.5140 C.ar   65  A65         0.1518
   1117  C6       -24.2510   27.9470   -5.7610 C.ar   65  A65         0.1919
   1118  N6       -24.3760   27.4420   -6.9850 N.pl3  65  A65        -0.1054
   1119  N7       -23.5380   30.3320   -6.3570 N.ar   65  A65        -0.2193
   1120  C8       -23.2510   31.3130   -5.5320 C.ar   65  A65         0.1816
   1121  N9       -23.3720   30.9720   -4.2060 N.ar   65  A65        -0.2693
   1122  OP1      -26.0630   36.7900   -4.5340 O.3    65  A65        -0.4373
   1123  OP2      -25.3750   35.0270   -6.2950 O.co2  65  A65        -0.5172
   1124  P        -20.5140   33.9450   -0.3620 P.3    66  A66         0.2141
   1125  C5'      -19.2290   31.6920   -0.7610 C.3    66  A66         0.1812
   1126  O5'      -19.6960   32.6780    0.1460 O.3    66  A66        -0.3114
   1127  C4'      -19.6870   30.3210   -0.3460 C.3    66  A66         0.1773
   1128  O4'      -20.9380   29.9950   -1.0070 O.3    66  A66        -0.3307
   1129  C3'      -18.7750   29.1720   -0.7220 C.3    66  A66         0.1860
   1130  O3'      -17.6630   29.0430    0.1330 O.3    66  A66        -0.3112
   1131  C2'      -19.7240   27.9880   -0.6910 C.3    66  A66         0.2309
   1132  O2'      -19.9980   27.5950    0.6460 O.3    66  A66        -0.2156
   1133  C1'      -20.9730   28.6140   -1.3070 C.3    66  A66         0.2408
   1134  N1       -21.3640   25.2700   -5.1170 N.ar   66  A66        -0.2040
   1135  C2       -21.5100   25.1600   -3.7930 C.ar   66  A66         0.2016
   1136  N3       -21.3930   26.0980   -2.8600 N.ar   66  A66        -0.2048
   1137  C4       -21.0980   27.2820   -3.4260 C.ar   66  A66         0.1692
   1138  C5       -20.9260   27.5640   -4.7670 C.ar   66  A66         0.1518
   1139  C6       -21.0710   26.4770   -5.6440 C.ar   66  A66         0.1919
   1140  N6       -20.9300   26.5620   -6.9620 N.pl3  66  A66        -0.1054
   1141  N7       -20.6180   28.9040   -4.9620 N.ar   66  A66        -0.2193
   1142  C8       -20.6140   29.4010   -3.7420 C.ar   66  A66         0.1816
   1143  N9       -20.9180   28.4660   -2.7710 N.ar   66  A66        -0.2693
   1144  OP1      -20.8560   34.7380    0.8440 O.3    66  A66        -0.4373
   1145  OP2      -19.7570   34.5770   -1.4800 O.co2  66  A66        -0.5172
   1146  P        -16.1920   29.0620   -0.5000 P.3    67  C67         0.2141
   1147  C5'      -15.8850   26.6080   -1.3520 C.3    67  C67         0.1812
   1148  O5'      -16.2580   27.9500   -1.6370 O.3    67  C67        -0.3114
   1149  C4'      -17.0830   25.7530   -1.0080 C.3    67  C67         0.1773
   1150  O4'      -17.9520   25.5890   -2.1640 O.3    67  C67        -0.3307
   1151  C3'      -16.7500   24.3390   -0.5830 C.3    67  C67         0.1860
   1152  O3'      -16.3740   24.2980    0.7790 O.3    67  C67        -0.3112
   1153  C2'      -18.0270   23.5670   -0.9020 C.3    67  C67         0.2309
   1154  O2'      -18.9920   23.7390    0.1270 O.3    67  C67        -0.2156
   1155  C1'      -18.5230   24.2920   -2.1610 C.3    67  C67         0.2420
   1156  N1       -18.1400   23.5950   -3.4170 N.ar   67  C67        -0.2535
   1157  C2       -18.8140   22.4290   -3.8230 C.ar   67  C67         0.3532
   1158  O2       -19.7320   21.9670   -3.1300 O.2    67  C67        -0.2443
   1159  N3       -18.4410   21.8150   -4.9720 N.ar   67  C67        -0.1739
   1160  C4       -17.4500   22.3130   -5.7210 C.ar   67  C67         0.1759
   1161  N4       -17.1260   21.6720   -6.8520 N.pl3  67  C67        -0.1070
   1162  C5       -16.7490   23.4910   -5.3410 C.ar   67  C67         0.0566
   1163  C6       -17.1230   24.0840   -4.1950 C.ar   67  C67         0.0850
   1164  OP1      -15.2740   28.5870    0.5700 O.3    67  C67        -0.4373
   1165  OP2      -15.9800   30.3500   -1.2180 O.co2  67  C67        -0.5172
   1166  P        -15.2160   23.3070    1.2700 P.3    68  U68         0.2141
   1167  C5'      -17.0680   21.6420    2.0530 C.3    68  U68         0.1812
   1168  O5'      -15.9180   21.8830    1.2560 O.3    68  U68        -0.3114
   1169  C4'      -17.5780   20.2430    1.8380 C.3    68  U68         0.1773
   1170  O4'      -18.2270   20.1630    0.5440 O.3    68  U68        -0.3307
   1171  C3'      -16.5050   19.1630    1.7860 C.3    68  U68         0.1860
   1172  O3'      -16.1250   18.7110    3.0740 O.3    68  U68        -0.3112
   1173  C2'      -17.1600   18.0790    0.9430 C.3    68  U68         0.2309
   1174  O2'      -18.0870   17.3430    1.7210 O.3    68  U68        -0.2156
   1175  C1'      -17.9560   18.9110   -0.0540 C.3    68  U68         0.2420
   1176  N1       -17.2440   19.1240   -1.3380 N.ar   68  U68        -0.2534
   1177  C2       -17.2880   18.0840   -2.2490 C.ar   68  U68         0.3546
   1178  O2       -17.8440   17.0140   -2.0340 O.2    68  U68        -0.2443
   1179  N3       -16.6520   18.3390   -3.4320 N.ar   68  U68        -0.1530
   1180  C4       -15.9960   19.4880   -3.8080 C.ar   68  U68         0.2846
   1181  O4       -15.4860   19.5350   -4.9340 O.2    68  U68        -0.2650
   1182  C5       -15.9950   20.5180   -2.8100 C.ar   68  U68         0.0814
   1183  C6       -16.6110   20.3090   -1.6410 C.ar   68  U68         0.0870
   1184  OP1      -14.9390   23.6410    2.7010 O.3    68  U68        -0.4373
   1185  OP2      -14.1450   23.3140    0.2480 O.co2  68  U68        -0.5172
   1186  P        -14.7180   17.9590    3.3080 P.3    69  C69         0.2141
   1187  C5'      -15.6880   15.5460    2.9460 C.3    69  C69         0.1812
   1188  O5'      -14.8290   16.5840    2.5000 O.3    69  C69        -0.3114
   1189  C4'      -15.8190   14.4450    1.9220 C.3    69  C69         0.1773
   1190  O4'      -16.2770   14.9870    0.6600 O.3    69  C69        -0.3307
   1191  C3'      -14.5430   13.7120    1.5510 C.3    69  C69         0.1860
   1192  O3'      -14.1770   12.7510    2.5210 O.3    69  C69        -0.3112
   1193  C2'      -14.9000   13.1090    0.1970 C.3    69  C69         0.2309
   1194  O2'      -15.7260   11.9730    0.3530 O.3    69  C69        -0.2156
   1195  C1'      -15.7620   14.2150   -0.4070 C.3    69  C69         0.2420
   1196  N1       -14.9900   15.0790   -1.3310 N.ar   69  C69        -0.2535
   1197  C2       -14.7520   14.5870   -2.6250 C.ar   69  C69         0.3532
   1198  O2       -15.2000   13.4630   -2.9600 O.2    69  C69        -0.2443
   1199  N3       -14.0530   15.3560   -3.4910 N.ar   69  C69        -0.1739
   1200  C4       -13.6020   16.5490   -3.0970 C.ar   69  C69         0.1759
   1201  N4       -12.9150   17.2630   -3.9820 N.pl3  69  C69        -0.1070
   1202  C5       -13.8260   17.0710   -1.7850 C.ar   69  C69         0.0566
   1203  C6       -14.5260   16.3000   -0.9370 C.ar   69  C69         0.0850
   1204  OP1      -14.7170   17.6710    4.7680 O.3    69  C69        -0.4373
   1205  OP2      -13.6140   18.7230    2.6790 O.co2  69  C69        -0.5172
   1206  P        -12.6820   12.1720    2.5980 P.3    70  U70         0.2141
   1207  C5'      -13.3350   10.0630    1.1660 C.3    70  U70         0.1812
   1208  O5'      -12.5400   11.2330    1.3090 O.3    70  U70        -0.3114
   1209  C4'      -13.0830    9.4130   -0.1710 C.3    70  U70         0.1773
   1210  O4'      -13.4720   10.3250   -1.2310 O.3    70  U70        -0.3307
   1211  C3'      -11.6270    9.0940   -0.4750 C.3    70  U70         0.1860
   1212  O3'      -11.2000    7.8690    0.1000 O.3    70  U70        -0.3112
   1213  C2'      -11.5840    9.0980   -1.9990 C.3    70  U70         0.2309
   1214  O2'      -12.0780    7.8750   -2.5070 O.3    70  U70        -0.2156
   1215  C1'      -12.6050   10.1770   -2.3390 C.3    70  U70         0.2420
   1216  N1       -12.0080   11.4890   -2.6640 N.ar   70  U70        -0.2534
   1217  C2       -11.5210   11.7020   -3.9470 C.ar   70  U70         0.3546
   1218  O2       -11.5200   10.8400   -4.8160 O.2    70  U70        -0.2443
   1219  N3       -11.0390   12.9690   -4.1780 N.ar   70  U70        -0.1530
   1220  C4       -10.9810   14.0170   -3.2760 C.ar   70  U70         0.2846
   1221  O4       -10.5210   15.1080   -3.6170 O.2    70  U70        -0.2650
   1222  C5       -11.5110   13.7180   -1.9880 C.ar   70  U70         0.0814
   1223  C6       -11.9960   12.5000   -1.7350 C.ar   70  U70         0.0870
   1224  OP1      -12.6700   11.2870    3.7980 O.3    70  U70        -0.4373
   1225  OP2      -11.7080   13.2820    2.4910 O.co2  70  U70        -0.5172
   1226  P         -9.6530    7.6380    0.4710 P.3    71  U71         0.2141
   1227  C5'       -9.1280    6.4560   -1.7950 C.3    71  U71         0.1812
   1228  O5'       -8.9340    7.5760   -0.9480 O.3    71  U71        -0.3114
   1229  C4'       -8.5270    6.6750   -3.1620 C.3    71  U71         0.1773
   1230  O4'       -9.1510    7.8110   -3.8160 O.3    71  U71        -0.3307
   1231  C3'       -7.0440    6.9990   -3.2100 C.3    71  U71         0.1860
   1232  O3'       -6.2320    5.8510   -3.0650 O.3    71  U71        -0.3112
   1233  C2'       -6.9030    7.6630   -4.5700 C.3    71  U71         0.2309
   1234  O2'       -6.9060    6.6740   -5.5910 O.3    71  U71        -0.2156
   1235  C1'       -8.2140    8.4530   -4.6550 C.3    71  U71         0.2420
   1236  N1        -8.0640    9.8530   -4.1950 N.ar   71  U71        -0.2534
   1237  C2        -7.6820   10.7720   -5.1440 C.ar   71  U71         0.3546
   1238  O2        -7.4730   10.4550   -6.3000 O.2    71  U71        -0.2443
   1239  N3        -7.5630   12.0650   -4.6920 N.ar   71  U71        -0.1530
   1240  C4        -7.7710   12.5080   -3.4020 C.ar   71  U71         0.2846
   1241  O4        -7.6250   13.7060   -3.1640 O.2    71  U71        -0.2650
   1242  C5        -8.1640   11.4960   -2.4610 C.ar   71  U71         0.0814
   1243  C6        -8.2920   10.2300   -2.8850 C.ar   71  U71         0.0870
   1244  OP1       -9.5090    6.2980    1.0890 O.2    71  U71        -0.5172
   1245  OP2       -9.1660    8.8150    1.2240 O.co2  71  U71        -0.4373
   1246  P         -4.7640    5.9690   -2.4290 P.3    72  G72         0.2141
   1247  C5'       -3.8350    5.9770   -4.8700 C.3    72  G72         0.1812
   1248  O5'       -3.8820    6.5900   -3.5940 O.3    72  G72        -0.3114
   1249  C4'       -3.0900    6.8380   -5.8490 C.3    72  G72         0.1773
   1250  O4'       -3.9010    7.9830   -6.2220 O.3    72  G72        -0.3307
   1251  C3'       -1.7980    7.4400   -5.3260 C.3    72  G72         0.1860
   1252  O3'       -0.7250    6.5190   -5.4030 O.3    72  G72        -0.3112
   1253  C2'       -1.6240    8.6830   -6.1990 C.3    72  G72         0.2309
   1254  O2'       -1.0600    8.3500   -7.4610 O.3    72  G72        -0.2156
   1255  C1'       -3.0820    9.1180   -6.4110 C.3    72  G72         0.2408
   1256  N1        -3.3230   14.1020   -5.2680 N.ar   72  G72        -0.1709
   1257  C2        -2.8180   13.5000   -6.4090 C.ar   72  G72         0.2606
   1258  N2        -2.3110   14.3120   -7.3470 N.pl3  72  G72        -0.0859
   1259  N3        -2.8180   12.1910   -6.6050 N.ar   72  G72        -0.1918
   1260  C4        -3.3610   11.5120   -5.5570 C.ar   72  G72         0.1723
   1261  C5        -3.8850   12.0180   -4.3790 C.ar   72  G72         0.1748
   1262  C6        -3.8850   13.4170   -4.1820 C.ar   72  G72         0.3023
   1263  O6        -4.3320   14.0300   -3.1960 O.2    72  G72        -0.2633
   1264  N7        -4.3540   11.0070   -3.5430 N.ar   72  G72        -0.2173
   1265  C8        -4.0960    9.9090   -4.2130 C.ar   72  G72         0.1817
   1266  N9        -3.5000   10.1470   -5.4390 N.ar   72  G72        -0.2693
   1267  OP1       -4.2600    4.5900   -2.2140 O.2    72  G72        -0.5172
   1268  OP2       -4.8310    6.9300   -1.2890 O.co2  72  G72        -0.4373
   1269  P          0.4710    6.5520   -4.3330 P.3    73  A73         0.2141
   1270  C5'        2.4800    8.2100   -4.3540 C.3    73  A73         0.1812
   1271  O5'        1.1070    7.9830   -4.5660 O.3    73  A73        -0.3114
   1272  C4'        2.9260    9.4400   -5.0870 C.3    73  A73         0.1773
   1273  O4'        2.0090   10.5340   -4.8320 O.3    73  A73        -0.3307
   1274  C3'        4.2660    9.9830   -4.6550 C.3    73  A73         0.1860
   1275  O3'        5.3300    9.2780   -5.2520 O.3    73  A73        -0.3112
   1276  C2'        4.1800   11.4440   -5.0650 C.3    73  A73         0.2309
   1277  O2'        4.3640   11.5730   -6.4720 O.3    73  A73        -0.2156
   1278  C1'        2.7240   11.7480   -4.7410 C.3    73  A73         0.2408
   1279  N1         3.2980   15.8180   -1.6320 N.ar   73  A73        -0.2040
   1280  C2         3.6100   15.6120   -2.9180 C.ar   73  A73         0.2016
   1281  N3         3.4300   14.5300   -3.6640 N.ar   73  A73        -0.2048
   1282  C4         2.8610   13.5470   -2.9420 C.ar   73  A73         0.1692
   1283  C5         2.4870   13.6010   -1.6130 C.ar   73  A73         0.1518
   1284  C6         2.7190   14.8130   -0.9360 C.ar   73  A73         0.1919
   1285  N6         2.4080   15.0270    0.3450 N.pl3  73  A73        -0.1054
   1286  N7         1.9340   12.3940   -1.2090 N.ar   73  A73        -0.2193
   1287  C8         1.9870   11.6450   -2.2940 C.ar   73  A73         0.1816
   1288  N9         2.5410   12.2820   -3.3780 N.ar   73  A73        -0.2693
   1289  OP1        1.5140    5.5760   -4.7390 O.2    73  A73        -0.5172
   1290  OP2       -0.1140    6.5030   -2.9740 O.co2  73  A73        -0.4373
   1291  P          6.5940    8.8700   -4.3600 P.3    74  U74         0.2141
   1292  C5'        7.6570   10.9870   -5.4800 C.3    74  U74         0.1812
   1293  O5'        7.4400   10.2210   -4.3020 O.3    74  U74        -0.3114
   1294  C4'        7.9290   12.4380   -5.1700 C.3    74  U74         0.1773
   1295  O4'        6.7360   13.0900   -4.6500 O.3    74  U74        -0.3307
   1296  C3'        8.9850   12.7080   -4.1130 C.3    74  U74         0.1860
   1297  O3'       10.3000   12.6160   -4.6290 O.3    74  U74        -0.3112
   1298  C2'        8.6340   14.1140   -3.6660 C.3    74  U74         0.2309
   1299  O2'        9.0860   15.0380   -4.6450 O.3    74  U74        -0.2156
   1300  C1'        7.1060   14.0780   -3.7140 C.3    74  U74         0.2420
   1301  N1         6.4910   13.7450   -2.4020 N.ar   74  U74        -0.2534
   1302  C2         6.4350   14.7240   -1.4330 C.ar   74  U74         0.3546
   1303  O2         6.8810   15.8370   -1.6150 O.2    74  U74        -0.2443
   1304  N3         5.8390   14.3570   -0.2440 N.ar   74  U74        -0.1530
   1305  C4         5.2990   13.1220    0.0540 C.ar   74  U74         0.2846
   1306  O4         4.7800   12.9310    1.1530 O.2    74  U74        -0.2650
   1307  C5         5.3850   12.1610   -1.0000 C.ar   74  U74         0.0814
   1308  C6         5.9630   12.4990   -2.1590 C.ar   74  U74         0.0870
   1309  OP1        7.3090    7.8280   -5.1490 O.2    74  U74        -0.5172
   1310  OP2        6.1590    8.5930   -2.9580 O.co2  74  U74        -0.4373
   1311  P         11.5220   12.1400   -3.6900 P.3    75  U75         0.2141
   1312  C5'       12.0520   14.6260   -3.0820 C.3    75  U75         0.1812
   1313  O5'       11.6870   13.3280   -2.6440 O.3    75  U75        -0.3114
   1314  C4'       12.0160   15.6010   -1.9420 C.3    75  U75         0.1773
   1315  O4'       10.6450   15.8120   -1.5030 O.3    75  U75        -0.3307
   1316  C3'       12.7330   15.1430   -0.6890 C.3    75  U75         0.1860
   1317  O3'       14.1300   15.3440   -0.7770 O.3    75  U75        -0.3112
   1318  C2'       12.0650   15.9780    0.3860 C.3    75  U75         0.2309
   1319  O2'       12.5510   17.3080    0.3200 O.3    75  U75        -0.2156
   1320  C1'       10.6170   15.9860   -0.1020 C.3    75  U75         0.2420
   1321  N1         9.8010   14.9030    0.5030 N.ar   75  U75        -0.2534
   1322  C2         9.3730   15.0700    1.8000 C.ar   75  U75         0.3546
   1323  O2         9.6460   16.0610    2.4620 O.2    75  U75        -0.2443
   1324  N3         8.6190   14.0370    2.3040 N.ar   75  U75        -0.1530
   1325  C4         8.2470   12.8750    1.6650 C.ar   75  U75         0.2846
   1326  O4         7.5500   12.0490    2.2630 O.2    75  U75        -0.2650
   1327  C5         8.7280   12.7680    0.3170 C.ar   75  U75         0.0814
   1328  C6         9.4700   13.7600   -0.1980 C.ar   75  U75         0.0870
   1329  OP1       12.7670   12.1220   -4.5030 O.2    75  U75        -0.5172
   1330  OP2       11.0680   10.9000   -2.9930 O.co2  75  U75        -0.4373
   1331  P         15.1600   14.3790   -0.0040 P.3    76  A76         0.2141
   1332  C5'       15.3090   16.1460    1.9200 C.3    76  A76         0.1812
   1333  O5'       15.0100   14.8150    1.5210 O.3    76  A76        -0.3114
   1334  C4'       14.9840   16.3760    3.3730 C.3    76  A76         0.1773
   1335  O4'       13.5460   16.3860    3.5690 O.3    76  A76        -0.3307
   1336  C3'       15.4790   15.3150    4.3430 C.3    76  A76         0.1860
   1337  O3'       16.8450   15.4770    4.6820 O.3    76  A76        -0.3112
   1338  C2'       14.5480   15.5020    5.5250 C.3    76  A76         0.2309
   1339  O2'       14.9280   16.6670    6.2300 O.3    76  A76        -0.2156
   1340  C1'       13.2320   15.8150    4.8190 C.3    76  A76         0.2408
   1341  N1         9.7510   12.7060    6.9610 N.ar   76  A76        -0.2040
   1342  C2        10.4300   13.7700    7.4150 C.ar   76  A76         0.2016
   1343  N3        11.3340   14.5270    6.7920 N.ar   76  A76        -0.2048
   1344  C4        11.5330   14.0900    5.5330 C.ar   76  A76         0.1692
   1345  C5        10.9230   13.0160    4.9180 C.ar   76  A76         0.1518
   1346  C6         9.9920   12.2920    5.6910 C.ar   76  A76         0.1919
   1347  N6         9.3180   11.2260    5.2470 N.pl3  76  A76        -0.1054
   1348  N7        11.4050   12.8690    3.6160 N.ar   76  A76        -0.2193
   1349  C8        12.2700   13.8470    3.4740 C.ar   76  A76         0.1816
   1350  N9        12.3940   14.6200    4.6020 N.ar   76  A76        -0.2693
   1351  OP1       16.5110   14.8030   -0.4780 O.2    76  A76        -0.5172
   1352  OP2       14.7410   12.9600   -0.0890 O.co2  76  A76        -0.4373
   1353  P         17.7310   14.2030    5.0920 P.3    77  U77         0.2141
   1354  C5'       17.3510   14.6270    7.6670 C.3    77  U77         0.1812
   1355  O5'       17.1950   13.7800    6.5370 O.3    77  U77        -0.3114
   1356  C4'       16.7080   14.0300    8.8980 C.3    77  U77         0.1773
   1357  O4'       15.2600   14.0400    8.7520 O.3    77  U77        -0.3307
   1358  C3'       17.0320   12.5710    9.1850 C.3    77  U77         0.1860
   1359  O3'       18.2990   12.3660    9.7950 O.3    77  U77        -0.3112
   1360  C2'       15.8500   12.1400   10.0410 C.3    77  U77         0.2309
   1361  O2'       15.9800   12.6490   11.3610 O.3    77  U77        -0.2156
   1362  C1'       14.7060   12.8880    9.3550 C.3    77  U77         0.2420
   1363  N1        14.0470   12.0560    8.3100 N.ar   77  U77        -0.2534
   1364  C2        12.9800   11.2700    8.7090 C.ar   77  U77         0.3546
   1365  O2        12.5760   11.2590    9.8610 O.2    77  U77        -0.2443
   1366  N3        12.3950   10.5110    7.7170 N.ar   77  U77        -0.1530
   1367  C4        12.7800   10.4550    6.3920 C.ar   77  U77         0.2846
   1368  O4        12.1640    9.7250    5.6210 O.2    77  U77        -0.2650
   1369  C5        13.8960   11.2850    6.0440 C.ar   77  U77         0.0814
   1370  C6        14.4720   12.0330    6.9920 C.ar   77  U77         0.0870
   1371  OP1       19.1460   14.6330    5.2140 O.3    77  U77        -0.4373
   1372  OP2       17.3520   13.0990    4.1770 O.co2  77  U77        -0.5172
   1373  P         19.1310   11.0350    9.4570 P.3    78  G78         0.2141
   1374  C5'       18.3010   10.0930   11.7470 C.3    78  G78         0.1812
   1375  O5'       18.4330    9.9070   10.3450 O.3    78  G78        -0.3114
   1376  C4'       17.3030    9.1440   12.3580 C.3    78  G78         0.1773
   1377  O4'       15.9610    9.4560   11.9040 O.3    78  G78        -0.3307
   1378  C3'       17.4700    7.6790   12.0030 C.3    78  G78         0.1860
   1379  O3'       18.5130    7.0480   12.7200 O.3    78  G78        -0.3112
   1380  C2'       16.0860    7.1210   12.2970 C.3    78  G78         0.2309
   1381  O2'       15.8880    6.9680   13.6930 O.3    78  G78        -0.2156
   1382  C1'       15.2030    8.2670   11.8130 C.3    78  G78         0.2408
   1383  N1        11.9930    5.7400    8.9050 N.ar   78  G78        -0.1709
   1384  C2        12.1470    5.7450   10.2730 C.ar   78  G78         0.2606
   1385  N2        11.3200    4.9610   10.9830 N.pl3  78  G78        -0.0859
   1386  N3        13.0440    6.4830   10.9010 N.ar   78  G78        -0.1918
   1387  C4        13.7910    7.2060   10.0430 C.ar   78  G78         0.1723
   1388  C5        13.7320    7.2720    8.6700 C.ar   78  G78         0.1748
   1389  C6        12.7530    6.4840    8.0030 C.ar   78  G78         0.3023
   1390  O6        12.5170    6.3950    6.7900 O.2    78  G78        -0.2633
   1391  N7        14.6950    8.1520    8.1840 N.ar   78  G78        -0.2173
   1392  C8        15.3060    8.5910    9.2560 C.ar   78  G78         0.1817
   1393  N9        14.7940    8.0560   10.4130 N.ar   78  G78        -0.2693
   1394  OP1       20.5110   11.2310    9.9690 O.3    78  G78        -0.4373
   1395  OP2       18.9230   10.7060    8.0220 O.co2  78  G78        -0.5172
   1396  P         19.4080    5.9240   12.0060 P.3    79  A79         0.2141
   1397  C5'       17.9600    4.3630   13.5120 C.3    79  A79         0.1812
   1398  O5'       18.5820    4.5900   12.2590 O.3    79  A79        -0.3114
   1399  C4'       16.8480    3.3580   13.3930 C.3    79  A79         0.1773
   1400  O4'       15.6860    3.9520   12.7530 O.3    79  A79        -0.3307
   1401  C3'       17.1460    2.1440   12.5360 C.3    79  A79         0.1860
   1402  O3'       17.9700    1.1980   13.1960 O.3    79  A79        -0.3112
   1403  C2'       15.7480    1.6430   12.1960 C.3    79  A79         0.2309
   1404  O2'       15.1780    0.9720   13.3080 O.3    79  A79        -0.2156
   1405  C1'       15.0010    2.9660   12.0030 C.3    79  A79         0.2408
   1406  N1        12.6810    2.3830    7.4330 N.ar   79  A79        -0.2040
   1407  C2        12.4440    1.8510    8.6440 C.ar   79  A79         0.2016
   1408  N3        13.0880    2.0520    9.7950 N.ar   79  A79        -0.2048
   1409  C4        14.1030    2.9200    9.6260 C.ar   79  A79         0.1692
   1410  C5        14.4720    3.5490    8.4440 C.ar   79  A79         0.1518
   1411  C6        13.7090    3.2520    7.2930 C.ar   79  A79         0.1919
   1412  N6        13.9390    3.7750    6.0810 N.pl3  79  A79        -0.1054
   1413  N7        15.5700    4.3790    8.6580 N.ar   79  A79        -0.2193
   1414  C8        15.8330    4.2360    9.9370 C.ar   79  A79         0.1816
   1415  N9        14.9820    3.3710   10.5840 N.ar   79  A79        -0.2693
   1416  OP1       20.6900    5.8260   12.7510 O.3    79  A79        -0.4373
   1417  OP2       19.4110    6.1620   10.5400 O.co2  79  A79        -0.5172
   1418  P         18.6490   -0.0090   12.3740 P.3    80  A80         0.2141
   1419  C5'       17.4840   -2.0720   11.3010 C.3    80  A80         0.1812
   1420  O5'       17.4840   -1.0820   12.3040 O.3    80  A80        -0.3114
   1421  C4'       16.0840   -2.4860   10.9450 C.3    80  A80         0.1773
   1422  O4'       15.2840   -1.3220   10.6140 O.3    80  A80        -0.3307
   1423  C3'       15.9930   -3.3660    9.7200 C.3    80  A80         0.1860
   1424  O3'       16.2640   -4.7120   10.0330 O.3    80  A80        -0.3112
   1425  C2'       14.5860   -3.1020    9.2120 C.3    80  A80         0.2309
   1426  O2'       13.6400   -3.8250    9.9790 O.3    80  A80        -0.2156
   1427  C1'       14.4340   -1.6140    9.5270 C.3    80  A80         0.2408
   1428  N1        13.8080   -0.2030    4.5740 N.ar   80  A80        -0.2040
   1429  C2        13.1670   -1.1110    5.3260 C.ar   80  A80         0.2016
   1430  N3        13.3630   -1.4410    6.6010 N.ar   80  A80        -0.2048
   1431  C4        14.3630   -0.7120    7.1270 C.ar   80  A80         0.1692
   1432  C5        15.1160    0.2520    6.4790 C.ar   80  A80         0.1518
   1433  C6        14.8110    0.5070    5.1320 C.ar   80  A80         0.1919
   1434  N6        15.4560    1.4080    4.3900 N.pl3  80  A80        -0.1054
   1435  N7        16.0650    0.8010    7.3300 N.ar   80  A80        -0.2193
   1436  C8        15.8700    0.1670    8.4580 C.ar   80  A80         0.1816
   1437  N9        14.8630   -0.7620    8.4060 N.ar   80  A80        -0.2693
   1438  OP1       19.7440   -0.5900   13.1870 O.3    80  A80        -0.4373
   1439  OP2       18.9380    0.4230   10.9820 O.co2  80  A80        -0.5172
   1440  P         17.6200   -5.3750    9.5000 P.3    81  G81         0.2141
   1441  C5'       15.9340   -6.7960    8.1270 C.3    81  G81         0.1812
   1442  O5'       17.1390   -6.0460    8.1410 O.3    81  G81        -0.3114
   1443  C4'       15.2480   -6.7510    6.7880 C.3    81  G81         0.1773
   1444  O4'       14.6830   -5.4340    6.5450 O.3    81  G81        -0.3307
   1445  C3'       16.1260   -7.0120    5.5740 C.3    81  G81         0.1860
   1446  O3'       16.3800   -8.3960    5.3790 O.3    81  G81        -0.3112
   1447  C2'       15.3210   -6.3720    4.4490 C.3    81  G81         0.2309
   1448  O2'       14.2740   -7.2320    4.0250 O.3    81  G81        -0.2156
   1449  C1'       14.7010   -5.1590    5.1600 C.3    81  G81         0.2408
   1450  N1        15.7270   -1.5640    1.7500 N.ar   81  G81        -0.1709
   1451  C2        14.8960   -2.6590    1.6650 C.ar   81  G81         0.2606
   1452  N2        14.2340   -2.8410    0.5110 N.pl3  81  G81        -0.0859
   1453  N3        14.7240   -3.5220    2.6510 N.ar   81  G81        -0.1918
   1454  C4        15.4530   -3.2100    3.7420 C.ar   81  G81         0.1723
   1455  C5        16.3090   -2.1470    3.9350 C.ar   81  G81         0.1748
   1456  C6        16.4890   -1.2200    2.8700 C.ar   81  G81         0.3023
   1457  O6        17.2050   -0.2120    2.8400 O.2    81  G81        -0.2633
   1458  N7        16.8630   -2.1960    5.2090 N.ar   81  G81        -0.2173
   1459  C8        16.3380   -3.2620    5.7520 C.ar   81  G81         0.1817
   1460  N9        15.4710   -3.9220    4.9140 N.ar   81  G81        -0.2693
   1461  OP1       18.0230   -6.4410   10.4550 O.3    81  G81        -0.4373
   1462  OP2       18.5910   -4.3010    9.1830 O.co2  81  G81        -0.5172
   1463  P         17.8490   -8.9360    4.9940 P.3    82  U82         0.2141
   1464  C5'       16.9810   -9.3800    2.5620 C.3    82  U82         0.1812
   1465  O5'       17.9140   -8.7370    3.4160 O.3    82  U82        -0.3114
   1466  C4'       16.8760   -8.6720    1.2380 C.3    82  U82         0.1773
   1467  O4'       16.3340   -7.3380    1.4440 O.3    82  U82        -0.3307
   1468  C3'       18.1870   -8.4200    0.5080 C.3    82  U82         0.1860
   1469  O3'       18.7060   -9.5620   -0.1660 O.3    82  U82        -0.3112
   1470  C2'       17.8240   -7.2520   -0.3990 C.3    82  U82         0.2309
   1471  O2'       17.0270   -7.6870   -1.4890 O.3    82  U82        -0.2156
   1472  C1'       16.9230   -6.4360    0.5290 C.3    82  U82         0.2420
   1473  N1        17.6740   -5.4040    1.2870 N.ar   82  U82        -0.2534
   1474  C2        17.9630   -4.2110    0.6380 C.ar   82  U82         0.3546
   1475  O2        17.6470   -3.9900   -0.5210 O.2    82  U82        -0.2443
   1476  N3        18.6450   -3.2760    1.3870 N.ar   82  U82        -0.1530
   1477  C4        19.0630   -3.3980    2.6970 C.ar   82  U82         0.2846
   1478  O4        19.6750   -2.4630    3.2220 O.2    82  U82        -0.2650
   1479  C5        18.7250   -4.6560    3.3060 C.ar   82  U82         0.0814
   1480  C6        18.0640   -5.5900    2.5990 C.ar   82  U82         0.0870
   1481  OP1       17.8920  -10.3960    5.2870 O.2    82  U82        -0.5172
   1482  OP2       18.8830   -8.0600    5.5990 O.co2  82  U82        -0.4373
   1483  P         20.2890   -9.7340   -0.3950 P.3    83  C83         0.2141
   1484  C5'       20.1340   -9.1810   -2.9680 C.3    83  C83         0.1813
   1485  O5'       20.6030   -8.8290   -1.6680 O.3    83  C83        -0.3114
   1486  C4'       20.2910   -8.0260   -3.9300 C.3    83  C83         0.1801
   1487  O4'       19.6980   -6.8380   -3.3450 O.3    83  C83        -0.3306
   1488  C3'       21.7320   -7.6290   -4.2390 C.3    83  C83         0.2161
   1489  O3'       22.2920   -8.3960   -5.2940 O.3    83  C83        -0.2175
   1490  C2'       21.6390   -6.1340   -4.5440 C.3    83  C83         0.2338
   1491  O2'       21.2840   -5.9030   -5.9010 O.3    83  C83        -0.2155
   1492  C1'       20.4740   -5.6940   -3.6490 C.3    83  C83         0.2421
   1493  N1        20.9080   -5.0520   -2.3740 N.ar   83  C83        -0.2535
   1494  C2        21.3810   -3.7210   -2.3500 C.ar   83  C83         0.3532
   1495  O2        21.4600   -3.0910   -3.4270 O.2    83  C83        -0.2443
   1496  N3        21.7600   -3.1570   -1.1570 N.ar   83  C83        -0.1739
   1497  C4        21.6630   -3.8610   -0.0140 C.ar   83  C83         0.1759
   1498  N4        22.0330   -3.3010    1.1430 N.pl3  83  C83        -0.1070
   1499  C5        21.1770   -5.2010   -0.0120 C.ar   83  C83         0.0566
   1500  C6        20.8150   -5.7370   -1.1890 C.ar   83  C83         0.0850
   1501  OP1       20.5300  -11.1310   -0.8210 O.2    83  C83        -0.5172
   1502  OP2       21.0260   -9.1970    0.7780 O.co2  83  C83        -0.4373
@<TRIPOS>BOND
     1   504   503    2
     2   502   503   ar
     3   502   500   ar
     4   501   500    2
     5   503   505   ar
     6   500   499   ar
     7   505   506   ar
     8   499   506   ar
     9   499   498    1
    10   498   493    1
    11   498   496    1
    12   497   496    1
    13   493   492    1
    14   496   494    1
    15   495   494    1
    16   495   509    1
    17   492   494    1
    18   492   490    1
    19   530   509    2
    20   507   489    2
    21   509   531    1
    22   509   511    1
    23   490   491    1
    24   491   489    1
    25   489   508    1
    26   489   473    1
    27   510   511    1
    28   510   512    1
    29   465   447    2
    30   487   467    2
    31   445   425    2
    32   473   472    1
    33   953   932    2
    34   512   513    1
    35   512   514    1
    36   469   467    1
    37   469   468    1
    38   467   488    1
    39   467   453    1
    40   447   431    1
    41   447   449    1
    42   447   466    1
    43   472   470    1
    44   472   474    1
    45   431   430    1
    46   448   449    1
    47   448   450    1
    48   513   518    1
    49   433   432    1
    50   475   474    1
    51   515   514    1
    52   515   532    1
    53   470   468    1
    54   470   471    1
    55   425   427    1
    56   425   408    1
    57   425   446    1
    58   427   426    1
    59   554   532    2
    60   930   910    2
    61   514   516    1
    62   553   532    1
    63   932   916    1
    64   932   954    1
    65   932   934    1
    66   474   476    1
    67   450   452    1
    68   450   451    1
    69   428   426    1
    70   428   430    1
    71   428   429    1
    72   916   915    1
    73   408   407    1
    74   453   452    1
    75   430   432    1
    76   452   454    1
    77   532   534    1
    78   528   527   ar
    79   528   529   ar
    80   911   913    1
    81   911   912    1
    82   518   529    1
    83   518   516    1
    84   563   562    1
    85   432   434    1
    86   410   409    1
    87   975   955    2
    88   593   575    2
    89   933   934    1
    90   933   935    1
    91   527   524   ar
    92   529   523   ar
    93   516   517    1
    94   913   915    1
    95   913   914    1
    96   429   434    1
    97   576   578    1
    98   576   577    1
    99   471   476    1
   100   910   912    1
   101   910   894    1
   102   910   931    1
   103   451   456    1
   104   476   486    1
   105   915   917    1
   106   561   575    1
   107   561   560    1
   108   407   405    1
   109   407   409    1
   110  1075  1074    2
   111   613   595    2
   112   405   403    1
   113   405   406    1
   114   434   444    1
   115   578   579    1
   116   578   580    1
   117   454   456    1
   118   454   455    1
   119   894   893    1
   120   403   404    1
   121   918   917    1
   122   976   955    1
   123   581   580    1
   124   581   595    1
   125   534   533    1
   126   955   938    1
   127   955   957    1
   128   409   411    1
   129  1073  1074   ar
   130  1073  1071   ar
   131   938   937    1
   132   423   402    2
   133   575   577    1
   134   575   594    1
   135   562   560    1
   136   562   564    1
   137   558   560    1
   138   558   559    1
   139   558   556    1
   140   524   523   ar
   141   524   525   ar
   142   523   522   ar
   143   935   937    1
   144   935   936    1
   145  1074  1076   ar
   146  1072  1071    2
   147   456   457    1
   148   917   919    1
   149   579   584    1
   150   914   919    1
   151   486   485   ar
   152   486   480   ar
   153   896   895    1
   154   559   564    1
   155   580   582    1
   156   564   565    1
   157   595   597    1
   158   595   614    1
   159   533   535    1
   160   583   582    1
   161  1071  1070   ar
   162  1055  1054    2
   163   404   402    1
   164   937   939    1
   165  1068  1067    1
   166   556   557    1
   167   406   411    1
   168  1053  1054   ar
   169  1053  1051   ar
   170   485   484   ar
   171   464   457   ar
   172   464   463   ar
   173  1052  1051    2
   174   411   422    1
   175   444   443   ar
   176   444   438   ar
   177   893   891    1
   178   893   895    1
   179   522   520   ar
   180   525   526    2
   181   525   519   ar
   182   402   388    1
   183   402   424    1
   184   919   929    1
   185   567   566    2
   186   891   889    1
   187   891   892    1
   188   597   596    1
   189  1076  1077   ar
   190   457   458   ar
   191   936   941    1
   192   889   890    1
   193   957   956    1
   194   582   584    1
   195  1054  1056   ar
   196   584   585    1
   197   480   479   ar
   198   480   481   ar
   199   390   389    1
   200   550   551   ar
   201   550   547   ar
   202   895   897    1
   203   388   387    1
   204   479   478   ar
   205  1051  1050   ar
   206   908   888    2
   207   551   552   ar
   208  1070  1077   ar
   209  1070  1069    1
   210   437   438   ar
   211   437   436   ar
   212  1067  1069    1
   213  1067  1065    1
   214   443   442   ar
   215   956   958    1
   216   463   461   ar
   217   438   439   ar
   218   565   566   ar
   219   565   572   ar
   220   484   481   ar
   221   520   519   ar
   222   520   521    1
   223   535   536    1
   224   535   537    1
   225   536   541    1
   226   566   568   ar
   227   939   940    1
   228   939   941    1
   229   557   555    1
   230   890   888    1
   231   929   928   ar
   232   929   923   ar
   233   422   421   ar
   234   422   416   ar
   235   481   482   ar
   236   928   927   ar
   237  1069  1064    1
   238   999   977    2
   239   549   548    2
   240   892   897    1
   241   941   952    1
   242   951   952   ar
   243   951   950   ar
   244   389   387    1
   245   389   391    1
   246   547   548   ar
   247   547   546   ar
   248   596   598    1
   249   458   459    2
   250   458   460   ar
   251   478   477   ar
   252   573   555    2
   253   897   907    1
   254   552   541    1
   255   552   546   ar
   256   585   592   ar
   257   585   586   ar
   258   387   385    1
   259   537   538    1
   260   537   539    1
   261   436   435   ar
   262   888   874    1
   263   888   909    1
   264  1056  1057   ar
   265   592   591   ar
   266  1035  1034    1
   267  1050  1057   ar
   268  1050  1049    1
   269   415   416   ar
   270   415   413   ar
   271  1065  1066    1
   272  1065  1063    1
   273   548   542   ar
   274   442   439   ar
   275   572   571   ar
   276   998   977    1
   277   421   420   ar
   278   598   599    1
   279   598   600    1
   280   952   946   ar
   281   439   440   ar
   282  1096  1095    1
   283   541   539    1
   284   555   538    1
   285   555   574    1
   286   416   417   ar
   287  1100  1080    2
   288  1101  1080    1
   289   461   460   ar
   290   461   462    2
   291   958   960    1
   292   958   959    1
   293  1066  1080    1
   294   546   545   ar
   295   385   383    1
   296   385   386    1
   297   950   947   ar
   298   977   961    1
   299   977   979    1
   300   599   604    1
   301   874   873    1
   302   568   569   ar
   303  1015  1014    1
   304   482   477   ar
   305   482   483    1
   306   927   924   ar
   307   923   922   ar
   308   923   924   ar
   309   587   586    2
   310   876   875    1
   311  1064  1063    1
   312   961   960    1
   313  1080  1082    1
   314   586   588   ar
   315  1049  1044    1
   316  1049  1047    1
   317   960   962    1
   318   973   972   ar
   319   973   974   ar
   320   391   386    1
   321   391   392    1
   322   394   393    2
   323   414   413    1
   324   539   540    1
   325   413   412   ar
   326   972   969   ar
   327  1079  1060    2
   328   922   921   ar
   329   959   964    1
   330   907   906   ar
   331   907   901   ar
   332  1063  1061    1
   333  1061  1062    1
   334   435   440   ar
   335   591   589   ar
   336  1034  1033   ar
   337  1034  1036   ar
   338   383   384    1
   339   601   600    1
   340   601   615    1
   341   542   543   ar
   342  1033  1031   ar
   343   440   441    1
   344   924   925   ar
   345   420   417   ar
   346  1095  1094   ar
   347  1095  1090   ar
   348   571   569   ar
   349   633   615    2
   350   603   602    1
   351  1044  1043    1
   352   417   418   ar
   353   600   602    1
   354   900   901   ar
   355   900   899   ar
   356  1097  1094   ar
   357  1097  1098   ar
   358   946   947   ar
   359   946   945   ar
   360   545   543   ar
   361   604   602    1
   362   604   605    1
   363   569   570    2
   364   947   948   ar
   365   875   873    1
   366   875   877    1
   367  1048  1047    1
   368   873   871    1
   369   906   905   ar
   370  1014  1016   ar
   371  1014  1013   ar
   372   901   902   ar
   373   979   978    1
   374   393   392   ar
   375   393   395   ar
   376  1094  1093   ar
   377   543   544    1
   378  1090  1091   ar
   379   392   399   ar
   380   588   589   ar
   381  1047  1045    1
   382   974   964    1
   383   974   968   ar
   384   995   996   ar
   385   995   992   ar
   386   384   382    1
   387   615   634    1
   388   615   617    1
   389  1036  1037   ar
   390  1062  1060    1
   391   964   962    1
   392   994   993    2
   393   412   418   ar
   394   589   590    2
   395   921   920   ar
   396  1254  1253    1
   397   962   963    1
   398  1082  1081    1
   399  1060  1078    1
   400  1060  1046    1
   401   969   968   ar
   402   969   970   ar
   403   871   869    1
   404   871   872    1
   405   400   382    2
   406  1098  1099   ar
   407   945   943   ar
   408  1031  1032    2
   409  1031  1030   ar
   410  1258  1257    1
   411  1016  1017   ar
   412   612   605   ar
   413   612   611   ar
   414   899   898   ar
   415  1013  1011   ar
   416   418   419    2
   417   925   920   ar
   418   925   926    1
   419   996   997   ar
   420   605   606   ar
   421   971   970    1
   422  1118  1117    1
   423  1140  1139    1
   424  1043  1045    1
   425  1043  1041    1
   426   395   396   ar
   427   948   949    2
   428   948   942   ar
   429   880   879    2
   430   869   870    1
   431  1161  1160    1
   432   905   902   ar
   433   902   903   ar
   434   978   980    1
   435   968   967   ar
   436   877   872    1
   437   877   878    1
   438  1019  1000    2
   439   399   398   ar
   440  1093  1099   ar
   441  1093  1092   ar
   442   616   617    1
   443   616   618    1
   444  1081  1083    1
   445  1091  1092   ar
   446   992   993   ar
   447   992   991   ar
   448   382   366    1
   449   382   401    1
   450   993   987   ar
   451   970   965   ar
   452  1259  1257   ar
   453  1259  1260   ar
   454  1045  1046    1
   455    32    31    1
   456   371   370   ar
   457   371   372   ar
   458   866   848    2
   459    65    47    2
   460  1277  1276    1
   461  1037  1030   ar
   462  1255  1250    1
   463  1255  1253    1
   464  1255  1266    1
   465  1257  1256   ar
   466   611   609   ar
   467  1099  1089    1
   468  1119  1120   ar
   469  1119  1116   ar
   470    48    50    1
   471    48    49    1
   472  1030  1029    1
   473  1238  1237    2
   474  1123  1102    2
   475  1041  1042    1
   476   943   942   ar
   477   943   944    1
   478  1250  1249    1
   479  1253  1251    1
   480   370   375   ar
   481   898   903   ar
   482    30    47    1
   483    30    29    1
   484  1017  1010   ar
   485   372   373   ar
   486  1011  1010   ar
   487  1011  1012    2
   488   606   607    2
   489   606   608   ar
   490   879   878   ar
   491   879   881   ar
   492   368   367    1
   493  1491  1490    1
   494   903   904    1
   495  1249  1251    1
   496  1249  1247    1
   497   396   398   ar
   498   396   397    2
   499   870   868    1
   500    50    51    1
   501    50    52    1
   502   997   991   ar
   503   997   986    1
   504   366   365    1
   505  1084  1083    1
   506  1084  1089    1
   507  1117  1116   ar
   508  1117  1112   ar
   509   878   885   ar
   510  1160  1162   ar
   511  1160  1159   ar
   512    27    29    1
   513    27    25    1
   514    27    28    1
   515  1139  1134   ar
   516  1139  1138   ar
   517  1234  1233    1
   518  1260  1266   ar
   519  1260  1261   ar
   520    85    67    2
   521   981   980    1
   522   981   986    1
   523   980   982    1
   524  1083  1085    1
   525  1120  1121   ar
   526  1116  1115   ar
   527   618   619    1
   528   618   620    1
   529   367   365    1
   530   367   369    1
   531   991   990   ar
   532  1292  1294    1
   533  1292  1293    1
   534    47    49    1
   535    47    66    1
   536   967   966   ar
   537  1266  1265   ar
   538   619   624    1
   539  1252  1251    1
   540  1252  1269    1
   541    53    52    1
   542    53    67    1
   543  1010  1009    1
   544   987   988   ar
   545   982   983    1
   546   982   984    1
   547  1162  1163   ar
   548   965   966   ar
   549  1489  1488    1
   550  1000   983    1
   551  1000  1002    1
   552  1000  1018    1
   553    31    29    1
   554    31    33    1
   555  1256  1262   ar
   556  1085  1087    1
   557  1085  1086    1
   558  1089  1087    1
   559  1275  1274    1
   560  1275  1291    1
   561   609   608   ar
   562   609   610    2
   563  1294  1295    1
   564  1294  1296    1
   565  1309  1291    2
   566    25    26    1
   567  1237  1239   ar
   568  1237  1236   ar
   569  1027  1029    1
   570  1027  1025    1
   571  1027  1028    1
   572    28    33    1
   573    51    56    1
   574  1134  1135   ar
   575  1272  1273    1
   576  1272  1274    1
   577  1272  1270    1
   578  1029  1024    1
   579   881   882   ar
   580  1276  1278    1
   581  1276  1274    1
   582   848   832    1
   583   848   867    1
   584   848   850    1
   585   375   376    1
   586   375   374   ar
   587   365   363    1
   588  1159  1157   ar
   589  1039  1020    2
   590    55    54    1
   591  1141  1138   ar
   592  1141  1142   ar
   593  1181  1180    2
   594   373   374   ar
   595   373   379   ar
   596  1102  1122    1
   597  1102  1086    1
   598  1102  1104    1
   599   986   984    1
   600  1247  1248    1
   601   886   868    2
   602  1042  1040    1
   603  1273  1278    1
   604  1218  1217    2
   605    52    54    1
   606    33    44    1
   607   243   244   ar
   608   243   248   ar
   609  1138  1137   ar
   610   832   831    1
   611  1278  1288    1
   612  1289  1269    2
   613   846   826    2
   614   885   884   ar
   615  1112  1113   ar
   616  1059  1040    2
   617  1239  1240   ar
   618  1235  1233    1
   619  1235  1236    1
   620  1235  1230    1
   621  1002  1001    1
   622  1295  1300    1
   623  1299  1298    1
   624  1297  1296    1
   625  1297  1311    1
   626    67    86    1
   627    67    69    1
   628   244   245   ar
   629   868   887    1
   630   868   854    1
   631  1233  1231    1
   632  1271  1270    1
   633  1271  1269    1
   634  1087  1088    1
   635  1490  1488    1
   636  1490  1492    1
   637   849   850    1
   638   849   851    1
   639  1329  1311    2
   640   632   631   ar
   641   632   625   ar
   642  1025  1026    1
   643  1025  1023    1
   644   984   985    1
   645  1261  1262   ar
   646  1261  1264   ar
   647  1291  1293    1
   648  1291  1310    1
   649   374   377   ar
   650  1269  1290    1
   651     9     8    1
   652   990   988   ar
   653   988   989    1
   654  1488  1486    1
   655   369   379    1
   656   369   364    1
   657   827   829    1
   658   827   828    1
   659  1265  1264   ar
   660  1121  1115   ar
   661  1121  1111    1
   662  1236  1243   ar
   663  1163  1156   ar
   664  1115  1114   ar
   665  1262  1263    2
   666  1219  1217   ar
   667  1219  1220   ar
   668   620   621    1
   669   620   622    1
   670   631   629   ar
   671    54    56    1
   672  1296  1298    1
   673    56    57    1
   674   624   625    1
   675   624   622    1
   676   379   378   ar
   677   882   884   ar
   678   882   883    1
   679   249   248    1
   680  1024  1023    1
   681  1201  1200    1
   682  1217  1216   ar
   683  1040  1026    1
   684  1040  1058    1
   685  1486  1487    1
   686  1486  1484    1
   687  1009  1007    1
   688  1009  1004    1
   689  1104  1103    1
   690  1022  1020    1
   691  1022  1021    1
   692   621   635    1
   693  1157  1156   ar
   694  1157  1158    2
   695  1230  1229    1
   696  1180  1179   ar
   697  1180  1182   ar
   698   248   247   ar
   699  1135  1136   ar
   700   829   831    1
   701   829   830    1
   702    68    69    1
   703    68    70    1
   704   625   626   ar
   705    26    24    1
   706  1142  1143   ar
   707  1300  1298    1
   708  1300  1301    1
   709  1311  1330    1
   710  1311  1313    1
   711  1281  1282   ar
   712  1281  1280   ar
   713  1492  1487    1
   714  1492  1493    1
   715  1020  1006    1
   716  1020  1038    1
   717    45    24    2
   718  1007  1005    1
   719  1007  1008    1
   720  1221  1220    2
   721   363   364    1
   722   363   361    1
   723  1248  1246    1
   724  1005  1003    1
   725  1005  1006    1
   726    13    12    1
   727   831   833    1
   728   245   246   ar
   729  1199  1200   ar
   730  1199  1197   ar
   731  1113  1114   ar
   732  1004  1003    1
   733  1179  1177   ar
   734  1495  1494    2
   735  1137  1136   ar
   736  1137  1143   ar
   737  1156  1155    1
   738   854   853    1
   739  1240  1241    2
   740  1240  1242   ar
   741  1288  1282   ar
   742  1288  1287   ar
   743   834   833    1
   744  1023  1021    1
   745    44    38   ar
   746    44    43   ar
   747  1110  1109    1
   748   826   828    1
   749   826   812    1
   750   826   847    1
   751   851   853    1
   752   851   852    1
   753  1220  1222   ar
   754  1109  1111    1
   755  1109  1107    1
   756  1001  1003    1
   757   657   635    2
   758   622   623    1
   759  1231  1229    1
   760  1231  1232    1
   761   377   378   ar
   762  1229  1227    1
   763   812   811    1
   764    37    38   ar
   765    37    35   ar
   766  1200  1202   ar
   767  1312  1313    1
   768  1312  1314    1
   769  1232  1246    1
   770   348   349   ar
   771   348   353   ar
   772     7    24    1
   773     7     6    1
   774  1111  1106    1
   775   629   630    1
   776   629   628   ar
   777     8     6    1
   778     8    10    1
   779   656   635    1
   780  1484  1485    1
   781  1198  1197    2
   782  1282  1283   ar
   783    24    46    1
   784  1280  1279   ar
   785   635   637    1
   786  1243  1242   ar
   787   814   813    1
   788   349   350   ar
   789  1182  1183   ar
   790    57    64   ar
   791    57    58   ar
   792  1143  1133    1
   793   853   855    1
   794   361   362    1
   795  1216  1215    1
   796  1216  1223   ar
   797   626   628   ar
   798   626   627    2
   799  1197  1196   ar
   800    38    39   ar
   801    64    63   ar
   802   833   835    1
   803    14    12   ar
   804    14    15   ar
   805   247   246   ar
   806   247   250   ar
   807    70    71    1
   808    70    72    1
   809  1106  1105    1
   810  1103  1105    1
   811   246   252   ar
   812   830   835    1
   813  1214  1213    1
   814    36    35    1
   815    12    11   ar
   816  1246  1267    2
   817  1246  1268    1
   818    43    42   ar
   819  1301  1308   ar
   820  1301  1302   ar
   821  1493  1494   ar
   822  1493  1500   ar
   823   354   353    1
   824  1494  1496   ar
   825  1215  1213    1
   826  1215  1210    1
   827  1287  1286   ar
   828  1177  1178    2
   829  1177  1176   ar
   830     6     4    1
   831   852   857    1
   832   353   352   ar
   833    35    34   ar
   834  1150  1155    1
   835  1150  1149    1
   836  1155  1153    1
   837  1308  1307   ar
   838    10     5    1
   839    10    21    1
   840  1107  1105    1
   841  1107  1108    1
   842  1213  1211    1
   843    71    76    1
   844  1222  1223   ar
   845  1314  1315    1
   846  1314  1316    1
   847    59    58    2
   848   350   351   ar
   849   811   813    1
   850   811   809    1
   851  1227  1228    1
   852  1202  1203   ar
   853   835   845    1
   854    58    60   ar
   855   813   815    1
   856     4     5    1
   857     4     2    1
   858  1485  1483    1
   859  1183  1176   ar
   860  1148  1147    1
   861  1148  1146    1
   862  1279  1284   ar
   863  1303  1302    2
   864  1283  1286   ar
   865  1283  1284   ar
   866   809   807    1
   867   809   810    1
   868    73    72    1
   869    73    87    1
   870  1315  1320    1
   871   362   360    1
   872  1471  1470    1
   873  1145  1124    2
   874   105    87    2
   875  1302  1304   ar
   876   637   636    1
   877    63    61   ar
   878    15    21   ar
   879    15    16   ar
   880    72    74    1
   881   250   251   ar
   882  1147  1149    1
   883  1176  1175    1
   884  1196  1203   ar
   885  1196  1195    1
   886  1133  1128    1
   887  1133  1131    1
   888    39    42   ar
   889    39    40   ar
   890   855   856    1
   891   855   857    1
   892    11    17   ar
   893   274   255    2
   894   252   242    1
   895   252   251   ar
   896  1210  1209    1
   897  1165  1146    2
   898   241   240    1
   899   240   242    1
   900   240   238    1
   901  1500  1499   ar
   902  1496  1497   ar
   903   807   808    1
   904    21    20   ar
   905   352   351   ar
   906   352   355   ar
   907   273   255    1
   908   865   864   ar
   909   865   858   ar
   910   351   357   ar
   911  1149  1151    1
   912  1128  1127    1
   913  1307  1305   ar
   914   857   858    1
   915  1228  1226    1
   916   636   638    1
   917  1284  1285    1
   918  1108  1124    1
   919  1153  1151    1
   920  1153  1154    1
   921    34    40   ar
   922  1501  1483    2
   923  1317  1316    1
   924  1317  1331    1
   925  1125  1127    1
   926  1125  1126    1
   927  1129  1131    1
   928  1129  1127    1
   929  1129  1130    1
   930  1131  1132    1
   931  1316  1318    1
   932    87   106    1
   933    87    89    1
   934   242   237    1
   935    84    83   ar
   936    84    77   ar
   937    76    74    1
   938    76    77    1
   939  1151  1152    1
   940   810   815    1
   941   815   816    1
   942  1475  1474    2
   943    60    61   ar
   944   653   654   ar
   945   653   650   ar
   946  1146  1130    1
   947  1146  1164    1
   948  1351  1331    2
   949  1211  1209    1
   950  1211  1212    1
   951   654   655   ar
   952   845   844   ar
   953   845   839   ar
   954     2     3    1
   955   255   239    1
   956   255   257    1
   957   864   862   ar
   958  1195  1193    1
   959  1195  1190    1
   960  1470  1468    1
   961  1470  1472    1
   962  1483  1469    1
   963  1483  1502    1
   964   381   360    2
   965  1124  1126    1
   966  1124  1144    1
   967    61    62    1
   968   332   331    2
   969   858   859   ar
   970    40    41    2
   971  1304  1305   ar
   972   844   843   ar
   973    74    75    1
   974  1328  1327   ar
   975  1328  1321   ar
   976  1209  1207    1
   977  1469  1468    1
   978    16    17   ar
   979    16    19   ar
   980   360   380    1
   981   360   344    1
   982   346   345    1
   983   345   347    1
   984   345   343    1
   985  1320  1318    1
   986  1320  1321    1
   987  1352  1331    1
   988   238   239    1
   989   238   236    1
   990  1175  1170    1
   991  1175  1173    1
   992   808   806    1
   993    17    18    2
   994  1497  1499   ar
   995  1497  1498    1
   996    83    81   ar
   997  1331  1333    1
   998   355   356   ar
   999   639   638    1
  1000   639   644    1
  1001  1305  1306    2
  1002    77    78   ar
  1003  1212  1226    1
  1004   357   347    1
  1005   357   356   ar
  1006   325   331   ar
  1007   325   326   ar
  1008  1193  1194    1
  1009  1193  1191    1
  1010    20    19   ar
  1011  1185  1166    2
  1012  1327  1325   ar
  1013  1319  1318    1
  1014   824   806    2
  1015   818   817    2
  1016   638   640    1
  1017   331   330   ar
  1018  1226  1244    2
  1019  1226  1245    1
  1020  1321  1322   ar
  1021  1468  1466    1
  1022  1452  1451    1
  1023  1472  1473    1
  1024  1472  1467    1
  1025  1170  1169    1
  1026   327   326    1
  1027    89    88    1
  1028   347   342    1
  1029  1474  1473   ar
  1030  1474  1476   ar
  1031  1190  1189    1
  1032   650   651   ar
  1033   650   649   ar
  1034   655   644    1
  1035   655   649   ar
  1036   237   236    1
  1037   839   838   ar
  1038   839   840   ar
  1039   344   343    1
  1040   652   651    2
  1041     3     1    1
  1042   816   817   ar
  1043   816   823   ar
  1044  1152  1166    1
  1045   343   341    1
  1046   257   256    1
  1047  1173  1174    1
  1048  1173  1171    1
  1049   326   328   ar
  1050   794   793    1
  1051   862   863    1
  1052   862   861   ar
  1053   843   840   ar
  1054   806   792    1
  1055   806   825    1
  1056   838   837   ar
  1057   859   861   ar
  1058   859   860    2
  1059   817   819   ar
  1060   644   642    1
  1061   236   234    1
  1062  1207  1208    1
  1063   798   797    2
  1064   651   645   ar
  1065  1466  1467    1
  1066  1466  1464    1
  1067  1168  1166    1
  1068  1168  1167    1
  1069  1166  1184    1
  1070  1473  1480   ar
  1071  1208  1206    1
  1072    81    80   ar
  1073    81    82    2
  1074   640   641    1
  1075   640   642    1
  1076   792   791    1
  1077  1476  1477   ar
  1078    78    80   ar
  1079    78    79    2
  1080   649   648   ar
  1081  1333  1332    1
  1082  1191  1189    1
  1083  1191  1192    1
  1084   793   791    1
  1085   793   795    1
  1086   823   822   ar
  1087   840   841   ar
  1088   680   658    2
  1089  1451  1450   ar
  1090  1451  1453   ar
  1091  1325  1326    2
  1092  1325  1324   ar
  1093   330   333   ar
  1094   330   329   ar
  1095   310   309    1
  1096  1450  1456   ar
  1097   294   275    2
  1098   256   258    1
  1099  1171  1169    1
  1100  1171  1172    1
  1101  1322  1324   ar
  1102  1322  1323    2
  1103  1169  1167    1
  1104    88    90    1
  1105  1332  1334    1
  1106  1189  1187    1
  1107   342   341    1
  1108   253   233    2
  1109   235   234    1
  1110   235   233    1
  1111    22     1    1
  1112   290   289    1
  1113   328   329   ar
  1114   641   658    1
  1115   271   272   ar
  1116   271   269   ar
  1117     1    23    1
  1118   791   789    1
  1119   341   339    1
  1120   797   799   ar
  1121   797   796   ar
  1122   642   643    1
  1123   837   836   ar
  1124   819   820   ar
  1125   333   334   ar
  1126   329   335   ar
  1127   675   674    2
  1128   645   646   ar
  1129  1225  1206    2
  1130  1188  1187    1
  1131  1188  1186    1
  1132   799   800   ar
  1133  1192  1206    1
  1134   270   269    2
  1135  1464  1465    1
  1136   648   646   ar
  1137  1206  1224    1
  1138  1480  1479   ar
  1139  1453  1454   ar
  1140   272   265   ar
  1141  1205  1186    2
  1142   658   679    1
  1143   658   660    1
  1144  1477  1478    2
  1145  1477  1479   ar
  1146   822   820   ar
  1147   676   677   ar
  1148   676   673   ar
  1149   233   254    1
  1150   233   217    1
  1151   795   796    1
  1152   795   790    1
  1153   340   339    1
  1154   340   338    1
  1155  1457  1456    2
  1156    91    90    1
  1157    91    96    1
  1158  1456  1455   ar
  1159   841   836   ar
  1160   841   842    1
  1161   291   289   ar
  1162   291   292   ar
  1163   103   104   ar
  1164   103   101   ar
  1165   309   311   ar
  1166   309   308   ar
  1167    90    92    1
  1168   269   268   ar
  1169   275   293    1
  1170   275   261    1
  1171   275   277    1
  1172   104    97   ar
  1173  1172  1186    1
  1174   820   821    1
  1175   646   647    1
  1176   796   803   ar
  1177   359   338    2
  1178   289   288   ar
  1179   258   260    1
  1180   258   259    1
  1181  1186  1204    1
  1182  1334  1335    1
  1183  1334  1336    1
  1184   674   673   ar
  1185   674   668   ar
  1186   334   335   ar
  1187   677   678   ar
  1188  1465  1463    1
  1189   260   261    1
  1190   260   262    1
  1191  1349  1348   ar
  1192  1349  1350   ar
  1193   335   324    1
  1194   789   790    1
  1195   789   787    1
  1196   311   312   ar
  1197   673   672   ar
  1198  1335  1340    1
  1199   308   306   ar
  1200  1348  1345   ar
  1201   800   801    1
  1202   800   802   ar
  1203   259   264    1
  1204  1454  1455   ar
  1205  1454  1460   ar
  1206   338   358    1
  1207   338   321    1
  1208   660   659    1
  1209  1455  1458   ar
  1210   265   264    1
  1211   265   266   ar
  1212   697   696    1
  1213   292   285   ar
  1214  1448  1447    1
  1215   314   295    2
  1216   101   102    2
  1217   101   100   ar
  1218    96    97    1
  1219    96    94    1
  1220   277   276    1
  1221   217   216    1
  1222    97    98   ar
  1223   322   324    1
  1224   322   320    1
  1225   322   323    1
  1226  1372  1353    2
  1227   803   802   ar
  1228   288   286   ar
  1229   268   266   ar
  1230   720   719    2
  1231  1336  1337    1
  1232  1336  1338    1
  1233    92    93    1
  1234    92    94    1
  1235   126   107    2
  1236  1434  1433    1
  1237   715   714    1
  1238  1447  1449    1
  1239  1447  1445    1
  1240   668   669   ar
  1241   713   719   ar
  1242   713   714   ar
  1243   324   319    1
  1244   264   262    1
  1245  1428  1433   ar
  1246  1428  1429   ar
  1247   787   788    1
  1248   678   672   ar
  1249   678   667    1
  1250  1350  1340    1
  1251  1350  1344   ar
  1252  1337  1353    1
  1253   337   315    2
  1254   672   671   ar
  1255   320   321    1
  1256   320   318    1
  1257   262   263    1
  1258   312   305   ar
  1259   266   267    2
  1260  1340  1338    1
  1261   306   305   ar
  1262   306   307    2
  1263    93   107    1
  1264   203   202    2
  1265   179   180   ar
  1266   179   184   ar
  1267  1460  1449    1
  1268  1460  1459   ar
  1269  1345  1344   ar
  1270  1345  1346   ar
  1271   185   184    1
  1272   125   107    1
  1273   659   661    1
  1274  1463  1481    2
  1275  1463  1446    1
  1276  1463  1482    1
  1277   719   718   ar
  1278   662   667    1
  1279   662   661    1
  1280  1353  1371    1
  1281  1353  1355    1
  1282   100    98   ar
  1283  1433  1432   ar
  1284   107   109    1
  1285    94    95    1
  1286  1449  1444    1
  1287   714   716   ar
  1288   222   223   ar
  1289   222   221   ar
  1290   216   218    1
  1291   216   214    1
  1292   696   691   ar
  1293   696   695   ar
  1294   285   286   ar
  1295   285   284    1
  1296  1458  1459   ar
  1297    98    99    2
  1298  1347  1346    1
  1299   286   287    2
  1300  1429  1430   ar
  1301  1446  1445    1
  1302   305   304    1
  1303   276   278    1
  1304   295   297    1
  1305   295   313    1
  1306   295   281    1
  1307  1338  1339    1
  1308   180   181   ar
  1309  1344  1343   ar
  1310   184   183   ar
  1311   317   315    1
  1312   317   316    1
  1313   223   224   ar
  1314   669   671   ar
  1315   669   670    1
  1316  1445  1443    1
  1317   204   202   ar
  1318   204   205   ar
  1319   667   665    1
  1320  1368  1367    2
  1321   691   692   ar
  1322   319   318    1
  1323  1346  1341   ar
  1324   122   121    1
  1325   219   218    1
  1326   218   220    1
  1327   698   695   ar
  1328   698   699   ar
  1329   202   201   ar
  1330   221   226   ar
  1331   788   786    1
  1332   661   663    1
  1333   315   336    1
  1334   315   301    1
  1335   280   281    1
  1336   280   278    1
  1337   280   282    1
  1338   297   296    1
  1339   695   694   ar
  1340   318   316    1
  1341  1369  1367   ar
  1342  1369  1370   ar
  1343   123   121   ar
  1344   123   124   ar
  1345  1412  1411    1
  1346   741   740    1
  1347   206   205    2
  1348   212   214    1
  1349   212   213    1
  1350   279   278    1
  1351   279   284    1
  1352   718   717   ar
  1353   718   721   ar
  1354   214   215    1
  1355  1367  1366   ar
  1356   284   282    1
  1357   716   717   ar
  1358  1432  1431   ar
  1359  1432  1435   ar
  1360   663   665    1
  1361   663   664    1
  1362   121   120   ar
  1363  1355  1354    1
  1364  1444  1443    1
  1365   205   207   ar
  1366  1430  1431   ar
  1367   282   283    1
  1368   300   302    1
  1369   300   301    1
  1370   300   298    1
  1371   109   108    1
  1372   302   304    1
  1373   302   303    1
  1374   181   182   ar
  1375   224   230   ar
  1376   224   225   ar
  1377   304   299    1
  1378  1443  1441    1
  1379  1390  1389    2
  1380   143   142    1
  1381  1343  1342   ar
  1382   183   182   ar
  1383   183   186   ar
  1384   665   666    1
  1385   739   740   ar
  1386   739   737   ar
  1387   699   700   ar
  1388   124   117   ar
  1389   692   693   ar
  1390  1341  1342   ar
  1391   717   723   ar
  1392  1370  1363   ar
  1393   702   681    2
  1394   805   786    2
  1395   199   198    1
  1396   226   225   ar
  1397   226   227    1
  1398   774   773    1
  1399   201   200    1
  1400   201   208   ar
  1401   740   742   ar
  1402  1431  1437   ar
  1403   164   163    2
  1404   786   772    1
  1405   786   804    1
  1406   220   215    1
  1407   220   230    1
  1408   721   722   ar
  1409   694   693   ar
  1410   694   700   ar
  1411   232   211    2
  1412   772   771    1
  1413  1411  1406   ar
  1414  1411  1410   ar
  1415   200   198    1
  1416   200   195    1
  1417  1435  1436   ar
  1418   299   298    1
  1419   182   188   ar
  1420   296   298    1
  1421   778   777    2
  1422  1406  1407   ar
  1423   230   229   ar
  1424   213   211    1
  1425   225   228   ar
  1426   108   110    1
  1427   738   737    2
  1428   664   681    1
  1429  1354  1356    1
  1430   197   211    1
  1431   197   196    1
  1432   186   187   ar
  1433  1366  1364   ar
  1434   120   118   ar
  1435   700   690    1
  1436   737   736   ar
  1437   207   208   ar
  1438   198   196    1
  1439  1389  1388   ar
  1440  1389  1383   ar
  1441  1395  1373    2
  1442   211   231    1
  1443   142   137   ar
  1444   142   141   ar
  1445  1441  1442    1
  1446  1442  1440    1
  1447   681   683    1
  1448   681   701    1
  1449   117   118   ar
  1450   117   116    1
  1451  1391  1388   ar
  1452  1391  1392   ar
  1453   195   194    1
  1454   777   779   ar
  1455   777   776   ar
  1456   723   722   ar
  1457   723   712    1
  1458   773   775    1
  1459   773   771    1
  1460  1363  1364   ar
  1461  1363  1362    1
  1462   111   110    1
  1463   111   116    1
  1464   163   162   ar
  1465   163   165   ar
  1466   742   743   ar
  1467  1437  1436   ar
  1468  1437  1427    1
  1469   775   776    1
  1470   775   770    1
  1471  1410  1413   ar
  1472  1410  1409   ar
  1473   771   769    1
  1474   144   141   ar
  1475   144   145   ar
  1476   188   187   ar
  1477   188   178    1
  1478   118   119    2
  1479  1407  1408   ar
  1480  1413  1414   ar
  1481   196   194    1
  1482  1388  1387   ar
  1483   779   780   ar
  1484   229   228   ar
  1485  1364  1365    2
  1486   110   112    1
  1487  1357  1356    1
  1488  1357  1362    1
  1489   162   160   ar
  1490   137   138   ar
  1491   683   682    1
  1492   141   140   ar
  1493   776   783   ar
  1494  1356  1358    1
  1495   148   127    2
  1496  1383  1384   ar
  1497   736   743   ar
  1498   736   735    1
  1499   116   114    1
  1500   690   685    1
  1501   690   688    1
  1502   194   192    1
  1503  1462  1440    2
  1504  1358  1359    1
  1505  1358  1360    1
  1506   685   684    1
  1507  1425  1427    1
  1508  1425  1423    1
  1509  1425  1426    1
  1510  1392  1393   ar
  1511   112   114    1
  1512   112   113    1
  1513  1362  1360    1
  1514   712   710    1
  1515   712   707    1
  1516   770   769    1
  1517   177   176    1
  1518   165   166   ar
  1519   769   767    1
  1520  1373  1359    1
  1521  1373  1394    1
  1522  1373  1375    1
  1523   176   178    1
  1524   176   174    1
  1525  1440  1424    1
  1526  1440  1461    1
  1527  1427  1422    1
  1528   178   173    1
  1529  1409  1408   ar
  1530  1409  1415   ar
  1531   780   781    2
  1532   780   782   ar
  1533   145   146   ar
  1534  1423  1424    1
  1535  1423  1421    1
  1536   783   782   ar
  1537   682   684    1
  1538  1414  1415   ar
  1539  1360  1361    1
  1540  1387  1393   ar
  1541  1387  1386   ar
  1542   160   161    2
  1543   160   159   ar
  1544   114   115    1
  1545   735   730    1
  1546   735   733    1
  1547   138   139   ar
  1548   710   711    1
  1549   710   708    1
  1550   113   127    1
  1551   140   146   ar
  1552   140   139   ar
  1553   127   147    1
  1554   127   129    1
  1555  1384  1386   ar
  1556  1384  1385    1
  1557   688   686    1
  1558   688   689    1
  1559   684   686    1
  1560   707   706    1
  1561  1375  1374    1
  1562  1393  1382    1
  1563   730   729    1
  1564   192   193    1
  1565   193   191    1
  1566  1417  1396    2
  1567   686   687    1
  1568  1415  1405    1
  1569  1422  1421    1
  1570   166   159   ar
  1571   146   136    1
  1572   174   175    1
  1573   174   172    1
  1574   767   768    1
  1575   173   172    1
  1576  1421  1419    1
  1577  1439  1418    2
  1578   159   158    1
  1579   129   128    1
  1580   725   703    2
  1581   734   733    1
  1582   708   706    1
  1583   708   709    1
  1584   175   191    1
  1585   768   766    1
  1586  1419  1420    1
  1587   733   731    1
  1588   705   703    1
  1589   705   704    1
  1590   706   704    1
  1591   172   170    1
  1592  1374  1376    1
  1593  1382  1377    1
  1594  1382  1380    1
  1595   687   703    1
  1596   191   209    2
  1597   191   210    1
  1598  1377  1376    1
  1599   168   149    2
  1600   729   731    1
  1601   729   727    1
  1602  1405  1403    1
  1603  1405  1400    1
  1604  1378  1380    1
  1605  1378  1376    1
  1606  1378  1379    1
  1607  1396  1398    1
  1608  1396  1379    1
  1609  1396  1416    1
  1610   703   724    1
  1611   136   131    1
  1612   136   134    1
  1613  1403  1401    1
  1614  1403  1404    1
  1615  1398  1397    1
  1616   131   130    1
  1617  1380  1381    1
  1618  1420  1418    1
  1619   709   726    1
  1620  1418  1438    1
  1621  1418  1402    1
  1622   731   732    1
  1623   128   130    1
  1624   784   766    2
  1625   158   156    1
  1626   158   153    1
  1627   785   766    1
  1628   766   752    1
  1629   732   746    1
  1630  1401  1402    1
  1631  1401  1399    1
  1632   727   728    1
  1633   745   726    2
  1634   171   170    1
  1635   171   169    1
  1636   728   726    1
  1637  1400  1399    1
  1638   132   134    1
  1639   132   130    1
  1640   132   133    1
  1641   156   154    1
  1642   156   157    1
  1643   134   135    1
  1644   190   169    2
  1645   726   744    1
  1646   153   152    1
  1647   149   151    1
  1648   149   133    1
  1649   149   167    1
  1650   151   150    1
  1651  1399  1397    1
  1652   154   152    1
  1653   154   155    1
  1654   764   746    2
  1655   754   753    1
  1656   751   752    1
  1657   751   753    1
  1658   751   749    1
  1659   169   155    1
  1660   169   189    1
  1661   746   765    1
  1662   746   748    1
  1663   753   755    1
  1664   152   150    1
  1665   747   749    1
  1666   747   748    1
  1667   749   750    1
  1668   763   762   ar
  1669   763   756   ar
  1670   755   750    1
  1671   755   756    1
  1672   762   760   ar
  1673   756   757   ar
  1674   760   761    2
  1675   760   759   ar
  1676   757   759   ar
  1677   757   758    2
